
-------------------------------------------------------------------------
|    ___ _   _ ___                                                      |
|   / __| | | |_  )   Release 7.0.0  "Blackbird"                        |
|   \__ \ |_| |/ /                                                      |
|   |___/\___//___|   Suite (Computational Fluid Dynamics Code)         |
|                                                                       |
-------------------------------------------------------------------------
| SU2 Project Website: https://su2code.github.io                        |
|                                                                       |
| The SU2 Project is maintained by the SU2 Foundation                   |
| (http://su2foundation.org)                                            |
-------------------------------------------------------------------------
| Copyright 2012-2019, SU2 Contributors                                 |
|                                                                       |
| SU2 is free software; you can redistribute it and/or                  |
| modify it under the terms of the GNU Lesser General Public            |
| License as published by the Free Software Foundation; either          |
| version 2.1 of the License, or (at your option) any later version.    |
|                                                                       |
| SU2 is distributed in the hope that it will be useful,                |
| but WITHOUT ANY WARRANTY; without even the implied warranty of        |
| MERCHANTABILITY or FITNESS FOR A PARTICULAR PURPOSE. See the GNU      |
| Lesser General Public License for more details.                       |
|                                                                       |
| You should have received a copy of the GNU Lesser General Public      |
| License along with SU2. If not, see <http://www.gnu.org/licenses/>.   |
-------------------------------------------------------------------------

Parsing config file for zone 0

----------------- Physical Case Definition ( Zone 0 ) -------------------
Compressible RANS equations.
Turbulence model: Spalart Allmaras
Hybrid RANS/LES: No Hybrid RANS/LES
Mach number: 0.2.
Angle of attack (AoA): 8 deg, and angle of sideslip (AoS): 0 deg.
Reynolds number: 3.2e+06. Reference length 84.0638.
No restart solution, use the values at infinity (freestream).
Dimensional simulation.
The reference area is 27625.6 m^2.
The semi-span will be computed using the max y(3D) value.
The reference length is 84.0638 m.
Reference origin for moment evaluation is (404.134, 142.875, 54.2392).
Surface(s) where the force coefficients are evaluated: Plane.

Surface(s) plotted in the output file: Plane.
Input mesh file name: ./VolumeGrid-FullGapFlaps-HexPrismPyrTets-Coarse.su2

--------------- Space Numerical Integration ( Zone 0 ) ------------------
Roe (with entropy fix = 0.001) solver for the flow inviscid terms.
Standard Roe without low-dissipation function.
Second order integration in space, with slope limiter.
Venkatakrishnan slope-limiting method, with constant: 1. 
The reference element size is: 1. 
Scalar upwind solver for the turbulence model.
First order integration in space.
Average of gradients with correction (viscous flow terms).
Average of gradients with correction (viscous turbulence terms).
Gradient for upwind reconstruction: Green-Gauss.
Gradient for viscous and source terms: Green-Gauss.

--------------- Time Numerical Integration  ( Zone 0 ) ------------------
Local time stepping (steady state simulation).
Euler implicit method for the flow equations.
FGMRES is used for solving the linear system.
Using a ILU(0) preconditioning.
Convergence criteria of the linear solver: 0.0001.
Max number of linear iterations: 10.
No CFL adaptation.
Courant-Friedrichs-Lewy number:        4
Euler implicit time integration for the turbulence model.

------------------ Convergence Criteria  ( Zone 0 ) ---------------------
Maximum number of solver subiterations: 999999.
Begin convergence monitoring at iteration 10.
Residual minimum value: 1e-14.
Cauchy series min. value: 1e-06.
Number of Cauchy elements: 100.

-------------------- Output Information ( Zone 0 ) ----------------------
Writing solution files every 250 iterations.
Writing the convergence history file every 1 inner iterations.
Writing the screen convergence history every 1 inner iterations.
The tabular file format is CSV (.csv).
Convergence history file name: history.
Forces breakdown file name: forces_breakdown.dat.
Surface file name: surface_flow.
Volume file name: flow.
Restart file name: restart_flow.dat.

------------- Config File Boundary Information ( Zone 0 ) ---------------
+-----------------------------------------------------------------------+
|                        Marker Type|                        Marker Name|
+-----------------------------------------------------------------------+
|                          Far-field|                           Farfield|
+-----------------------------------------------------------------------+
|                     Symmetry plane|                           Symmetry|
+-----------------------------------------------------------------------+
|                     Heat flux wall|                              Plane|
+-----------------------------------------------------------------------+

-------------------- Output Preprocessing ( Zone 0 ) --------------------
Euler/Navier-Stokes/RANS output structure.
Screen output fields: INNER_ITER, WALL_TIME, CUR_TIME, RMS_DENSITY, RMS_NU_TILDE, LIFT, DRAG
History output group(s): ITER, RMS_RES
Convergence field(s): DRAG
Volume output fields: COORDINATES, SOLUTION, PRIMITIVE

------------------- Geometry Preprocessing ( Zone 0 ) -------------------
Three dimensional problem.
8302012 grid points before partitioning.
18011980 volume elements before partitioning.
3 surface markers.
4884 boundary elements in index 0 (Marker = Farfield).
238022 boundary elements in index 1 (Marker = Plane).
66724 boundary elements in index 2 (Marker = Symmetry).
Executing the partitioning functions.
Building the graph adjacency structure.
Calling ParMETIS... graph partitioning complete (108365 edge cuts).
Distributing ParMETIS coloring.
Rebalancing vertices.
Rebalancing volume element connectivity.
Rebalancing markers and surface elements.
8432320 vertices including ghost points. 
18149461 interior elements including halo cells. 
10082663 tetrahedra.
5570808 hexahedra.
952269 prisms.
1543721 pyramids.
Establishing MPI communication patterns.
Setting point connectivity.
Renumbering points (Reverse Cuthill McKee Ordering).
Recomputing point connectivity.
Setting element connectivity.
Checking the numerical grid orientation.
There has been a re-orientation of the PRISM volume elements.
Identifying edges and vertices.
Computing centers of gravity.
Setting the control volume structure.
Volume of the computational grid: 1.43203e+09.
Searching for the closest normal neighbors to the surfaces.
Storing a mapping from global to local point index.
Compute the surface curvature.
Max K: 86066. Mean K: 233.284. Standard deviation K: 1588.89.
Checking for periodicity.
Computing mesh quality statistics for the dual control volumes.
+--------------------------------------------------------------+
|           Mesh Quality Metric|        Minimum|        Maximum|
+--------------------------------------------------------------+
|    Orthogonality Angle (deg.)|        4.84623|             90|
|     CV Face Area Aspect Ratio|        1.01493|        47330.3|
|           CV Sub-Volume Ratio|              1|         4112.7|
+--------------------------------------------------------------+
Finding max control volume width.
Communicating number of neighbors.
Computing wall distances.
Semi-span length = 29.4619 m.
Wetted area = 954.003 m^2.
Area projection in the x-plane = 68.1121 m^2, y-plane = 36.7941 m^2, z-plane = 351.273 m^2.
Max. coordinate in the x-direction = 65.0972 m, y-direction = 29.4619 m, z-direction = 8.71576 m.
Min. coordinate in the x-direction = 2.35172 m, y-direction = -8.75769e-08 m, z-direction = 2.27583 m.
Checking if Euler & Symmetry markers are straight/plane:
Boundary marker Symmetry is NOT a single plane.

-------------------- Solver Preprocessing ( Zone 0 ) --------------------
Viscous flow: Computing pressure using the ideal gas law
based on the free-stream temperature and a density computed
from the Reynolds number.
Force coefficients computed using free-stream values.

-- Models:
+------------------------------------------------------------------------------+
|          Viscosity Model|        Conductivity Model|              Fluid Model|
+------------------------------------------------------------------------------+
|               SUTHERLAND|          CONSTANT_PRANDTL|             STANDARD_AIR|
+------------------------------------------------------------------------------+
-- Fluid properties:
+------------------------------------------------------------------------------+
|                  Name|    Dim. value|    Ref. value|      Unit|Non-dim. value|
+------------------------------------------------------------------------------+
|        Ref. Viscosity|     1.716e-05|             1|   N.s/m^2|     1.716e-05|
|      Sutherland Temp.|        273.15|             1|         K|        273.15|
|     Sutherland Const.|         110.4|             1|         K|         110.4|
+------------------------------------------------------------------------------+
|        Prandtl (Lam.)|             -|             -|         -|          0.72|
|       Prandtl (Turb.)|             -|             -|         -|           0.9|
+------------------------------------------------------------------------------+
|          Gas Constant|       287.058|             1|  N.m/kg.K|       287.058|
|      Spec. Heat Ratio|             -|             -|         -|           1.4|
+------------------------------------------------------------------------------+
-- Initial and free-stream conditions:
+------------------------------------------------------------------------------+
|                  Name|    Dim. value|    Ref. value|      Unit|Non-dim. value|
+------------------------------------------------------------------------------+
|       Static Pressure|       827.796|             1|        Pa|       827.796|
|               Density|     0.0100077|             1|    kg/m^3|     0.0100077|
|           Temperature|        288.15|             1|         K|        288.15|
|          Total Energy|        209105|             1|   m^2/s^2|        209105|
|            Velocity-X|       67.3971|             1|       m/s|       67.3971|
|            Velocity-Y|             0|             1|       m/s|             0|
|            Velocity-Z|       9.47204|             1|       m/s|       9.47204|
|    Velocity Magnitude|       68.0594|             1|       m/s|       68.0594|
+------------------------------------------------------------------------------+
|             Viscosity|    1.7893e-05|             1|   N.s/m^2|    1.7893e-05|
|          Conductivity|             -|             1|   W/m^2.K|             -|
|     Turb. Kin. Energy|       17.3703|             1|   m^2/s^2|       17.3703|
|     Spec. Dissipation|       971.539|             1|       1/s|       971.539|
+------------------------------------------------------------------------------+
|           Mach Number|             -|             -|         -|           0.2|
|       Reynolds Number|             -|             -|         -|       3.2e+06|
+------------------------------------------------------------------------------+
Initialize Jacobian structure (Navier-Stokes). MG level: 0.
Initialize Jacobian structure (SA model).

------------------- Numerics Preprocessing ( Zone 0 ) -------------------

----------------- Integration Preprocessing ( Zone 0 ) ------------------

------------------- Iteration Preprocessing ( Zone 0 ) ------------------
Euler/Navier-Stokes/RANS fluid iteration.

------------------------------ Begin Solver -----------------------------

Simulation Run using the Single-zone Driver
+------------------------------------------------------------------------------------------+
|  Inner_Iter|   Time(sec)|    Cur_Time|    rms[Rho]|     rms[nu]|          CL|          CD|
+------------------------------------------------------------------------------------------+
|           0|  4.5816e+01|  0.0000e+00|   -3.671564|   -2.144911|    0.012868|    0.052542|
|           1|  4.6842e+01|  0.0000e+00|   -3.834097|   -2.494038|    0.016318|    0.049940|
|           2|  4.7047e+01|  0.0000e+00|   -4.022747|   -2.931794|    0.018933|    0.047844|
|           3|  4.7144e+01|  0.0000e+00|   -4.139129|   -3.269668|    0.020818|    0.046057|
|           4|  4.7236e+01|  0.0000e+00|   -4.212425|   -3.501922|    0.022180|    0.044480|
|           5|  4.7273e+01|  0.0000e+00|   -4.257773|   -3.665619|    0.023191|    0.043094|
|           6|  4.7301e+01|  0.0000e+00|   -4.286378|   -3.761792|    0.023949|    0.041880|
|           7|  4.7338e+01|  0.0000e+00|   -4.305553|   -3.837456|    0.024539|    0.040820|
|           8|  4.7357e+01|  0.0000e+00|   -4.319610|   -3.895972|    0.025009|    0.039894|
|           9|  4.7377e+01|  0.0000e+00|   -4.330325|   -3.947061|    0.025389|    0.039080|
|          10|  4.7390e+01|  0.0000e+00|   -4.338439|   -3.992143|    0.025702|    0.038358|
|          11|  4.7401e+01|  0.0000e+00|   -4.344295|   -4.030485|    0.025962|    0.037714|
|          12|  4.7408e+01|  0.0000e+00|   -4.347954|   -4.064152|    0.026182|    0.037136|
|          13|  4.7395e+01|  0.0000e+00|   -4.349385|   -4.095392|    0.026370|    0.036613|
|          14|  4.7383e+01|  0.0000e+00|   -4.348531|   -4.124472|    0.026532|    0.036137|
|          15|  4.7373e+01|  0.0000e+00|   -4.345353|   -4.150300|    0.026673|    0.035702|
|          16|  4.7362e+01|  0.0000e+00|   -4.339860|   -4.172947|    0.026797|    0.035301|
|          17|  4.7353e+01|  0.0000e+00|   -4.332107|   -4.192895|    0.026907|    0.034929|
|          18|  4.7344e+01|  0.0000e+00|   -4.322170|   -4.210783|    0.027004|    0.034582|
|          19|  4.7339e+01|  0.0000e+00|   -4.310117|   -4.226907|    0.027089|    0.034255|
|          20|  4.7333e+01|  0.0000e+00|   -4.295996|   -4.240744|    0.027163|    0.033943|
|          21|  4.7329e+01|  0.0000e+00|   -4.279849|   -4.251704|    0.027226|    0.033644|
|          22|  4.7325e+01|  0.0000e+00|   -4.261747|   -4.259597|    0.027278|    0.033353|
|          23|  4.7323e+01|  0.0000e+00|   -4.241850|   -4.264490|    0.027319|    0.033068|
|          24|  4.7321e+01|  0.0000e+00|   -4.220468|   -4.266614|    0.027350|    0.032783|
|          25|  4.7320e+01|  0.0000e+00|   -4.198085|   -4.266402|    0.027370|    0.032495|
|          26|  4.7317e+01|  0.0000e+00|   -4.175321|   -4.264296|    0.027379|    0.032202|
|          27|  4.7316e+01|  0.0000e+00|   -4.152815|   -4.260558|    0.027377|    0.031899|
|          28|  4.7312e+01|  0.0000e+00|   -4.131038|   -4.255348|    0.027365|    0.031583|
|          29|  4.7310e+01|  0.0000e+00|   -4.110141|   -4.248653|    0.027341|    0.031250|
|          30|  4.7306e+01|  0.0000e+00|   -4.089844|   -4.240285|    0.027306|    0.030897|
|          31|  4.7304e+01|  0.0000e+00|   -4.069504|   -4.229879|    0.027260|    0.030521|
|          32|  4.7304e+01|  0.0000e+00|   -4.048261|   -4.216987|    0.027201|    0.030119|
|          33|  4.7301e+01|  0.0000e+00|   -4.025308|   -4.201256|    0.027130|    0.029688|
|          34|  4.7303e+01|  0.0000e+00|   -4.000104|   -4.182547|    0.027045|    0.029227|
|          35|  4.7304e+01|  0.0000e+00|   -3.972465|   -4.160963|    0.026944|    0.028734|
|          36|  4.7303e+01|  0.0000e+00|   -3.942563|   -4.136834|    0.026825|    0.028207|
|          37|  4.7358e+01|  0.0000e+00|   -3.910837|   -4.110670|    0.026687|    0.027646|
|          38|  4.7409e+01|  0.0000e+00|   -3.877882|   -4.083097|    0.026526|    0.027050|
|          39|  4.7458e+01|  0.0000e+00|   -3.844359|   -4.054791|    0.026341|    0.026420|
|          40|  4.7505e+01|  0.0000e+00|   -3.810925|   -4.026415|    0.026130|    0.025755|
|          41|  4.7550e+01|  0.0000e+00|   -3.778198|   -3.998595|    0.025892|    0.025057|
|          42|  4.7593e+01|  0.0000e+00|   -3.746738|   -3.971863|    0.025625|    0.024326|
|          43|  4.7635e+01|  0.0000e+00|   -3.717033|   -3.946640|    0.025329|    0.023563|
|          44|  4.7682e+01|  0.0000e+00|   -3.689496|   -3.923254|    0.025004|    0.022770|
|          45|  4.7720e+01|  0.0000e+00|   -3.664470|   -3.901915|    0.024651|    0.021948|
|          46|  4.7757e+01|  0.0000e+00|   -3.642216|   -3.882712|    0.024272|    0.021100|
|          47|  4.7793e+01|  0.0000e+00|   -3.622909|   -3.865611|    0.023870|    0.020229|
|          48|  4.7826e+01|  0.0000e+00|   -3.606634|   -3.850444|    0.023447|    0.019337|
|          49|  4.7859e+01|  0.0000e+00|   -3.593374|   -3.836901|    0.023007|    0.018428|
|          50|  4.7892e+01|  0.0000e+00|   -3.582990|   -3.824554|    0.022555|    0.017504|
|          51|  4.7923e+01|  0.0000e+00|   -3.575209|   -3.812868|    0.022095|    0.016570|
|          52|  4.7948e+01|  0.0000e+00|   -3.569594|   -3.801247|    0.021632|    0.015630|
|          53|  4.7966e+01|  0.0000e+00|   -3.565543|   -3.789097|    0.021169|    0.014686|
|          54|  4.7983e+01|  0.0000e+00|   -3.562275|   -3.775903|    0.020711|    0.013743|
|          55|  4.8000e+01|  0.0000e+00|   -3.558883|   -3.761325|    0.020261|    0.012804|
|          56|  4.8017e+01|  0.0000e+00|   -3.554402|   -3.745260|    0.019823|    0.011874|
|          57|  4.8034e+01|  0.0000e+00|   -3.547979|   -3.727864|    0.019401|    0.010956|
|          58|  4.8049e+01|  0.0000e+00|   -3.539017|   -3.709513|    0.018996|    0.010054|
|          59|  4.8063e+01|  0.0000e+00|   -3.527329|   -3.690743|    0.018610|    0.009170|
|          60|  4.8077e+01|  0.0000e+00|   -3.513182|   -3.672168|    0.018242|    0.008308|
|          61|  4.8091e+01|  0.0000e+00|   -3.497217|   -3.654407|    0.017893|    0.007469|
|          62|  4.8107e+01|  0.0000e+00|   -3.480311|   -3.638017|    0.017561|    0.006654|
|          63|  4.8119e+01|  0.0000e+00|   -3.463393|   -3.623478|    0.017244|    0.005866|
|          64|  4.8130e+01|  0.0000e+00|   -3.447303|   -3.611180|    0.016939|    0.005106|
|          65|  4.8142e+01|  0.0000e+00|   -3.432754|   -3.601409|    0.016645|    0.004376|
|          66|  4.8123e+01|  0.0000e+00|   -3.420284|   -3.594347|    0.016359|    0.003676|
|          67|  4.8107e+01|  0.0000e+00|   -3.410264|   -3.590077|    0.016077|    0.003007|
|          68|  4.8091e+01|  0.0000e+00|   -3.402708|   -3.588599|    0.015796|    0.002367|
|          69|  4.8077e+01|  0.0000e+00|   -3.397680|   -3.589809|    0.015512|    0.001756|
|          70|  4.8066e+01|  0.0000e+00|   -3.394994|   -3.593496|    0.015222|    0.001173|
|          71|  4.8053e+01|  0.0000e+00|   -3.394373|   -3.599286|    0.014925|    0.000619|
|          72|  4.8040e+01|  0.0000e+00|   -3.395375|   -3.606710|    0.014618|    0.000091|
|          73|  4.8028e+01|  0.0000e+00|   -3.397512|   -3.615247|    0.014299|   -0.000409|
|          74|  4.8016e+01|  0.0000e+00|   -3.400230|   -3.624343|    0.013967|   -0.000885|
|          75|  4.8005e+01|  0.0000e+00|   -3.402983|   -3.633497|    0.013622|   -0.001334|
|          76|  4.7995e+01|  0.0000e+00|   -3.405375|   -3.642318|    0.013264|   -0.001760|
|          77|  4.7984e+01|  0.0000e+00|   -3.407132|   -3.650519|    0.012892|   -0.002162|
|          78|  4.7974e+01|  0.0000e+00|   -3.408164|   -3.657944|    0.012508|   -0.002541|
|          79|  4.7963e+01|  0.0000e+00|   -3.408493|   -3.664577|    0.012110|   -0.002898|
|          80|  4.7952e+01|  0.0000e+00|   -3.408288|   -3.670495|    0.011701|   -0.003233|
|          81|  4.7942e+01|  0.0000e+00|   -3.407863|   -3.675812|    0.011282|   -0.003546|
|          82|  4.7932e+01|  0.0000e+00|   -3.407497|   -3.680615|    0.010855|   -0.003837|
|          83|  4.7923e+01|  0.0000e+00|   -3.407417|   -3.684900|    0.010421|   -0.004106|
|          84|  4.7913e+01|  0.0000e+00|   -3.407752|   -3.688551|    0.009982|   -0.004353|
|          85|  4.7905e+01|  0.0000e+00|   -3.408499|   -3.691322|    0.009541|   -0.004578|
|          86|  4.7896e+01|  0.0000e+00|   -3.409558|   -3.692863|    0.009099|   -0.004779|
|          87|  4.7888e+01|  0.0000e+00|   -3.410731|   -3.692794|    0.008659|   -0.004957|
|          88|  4.7879e+01|  0.0000e+00|   -3.411695|   -3.690763|    0.008222|   -0.005111|
|          89|  4.7872e+01|  0.0000e+00|   -3.412092|   -3.686515|    0.007790|   -0.005242|
|          90|  4.7864e+01|  0.0000e+00|   -3.411577|   -3.679947|    0.007367|   -0.005348|
|          91|  4.7857e+01|  0.0000e+00|   -3.409883|   -3.671130|    0.006952|   -0.005430|
|          92|  4.7850e+01|  0.0000e+00|   -3.406827|   -3.660288|    0.006549|   -0.005486|
|          93|  4.7844e+01|  0.0000e+00|   -3.402350|   -3.647763|    0.006157|   -0.005517|
|          94|  4.7837e+01|  0.0000e+00|   -3.396514|   -3.633958|    0.005779|   -0.005523|
|          95|  4.7831e+01|  0.0000e+00|   -3.389481|   -3.619280|    0.005414|   -0.005503|
|          96|  4.7826e+01|  0.0000e+00|   -3.381503|   -3.604127|    0.005064|   -0.005458|
|          97|  4.7819e+01|  0.0000e+00|   -3.372883|   -3.588919|    0.004729|   -0.005387|
|          98|  4.7813e+01|  0.0000e+00|   -3.363935|   -3.574040|    0.004409|   -0.005292|
|          99|  4.7808e+01|  0.0000e+00|   -3.354983|   -3.559833|    0.004104|   -0.005171|
|         100|  4.7803e+01|  0.0000e+00|   -3.346339|   -3.546604|    0.003813|   -0.005026|
|         101|  4.7799e+01|  0.0000e+00|   -3.338295|   -3.534612|    0.003535|   -0.004857|
|         102|  4.7797e+01|  0.0000e+00|   -3.331115|   -3.524069|    0.003268|   -0.004665|
|         103|  4.7793e+01|  0.0000e+00|   -3.325025|   -3.515158|    0.003012|   -0.004451|
|         104|  4.7790e+01|  0.0000e+00|   -3.320206|   -3.507997|    0.002765|   -0.004215|
|         105|  4.7784e+01|  0.0000e+00|   -3.316770|   -3.502639|    0.002525|   -0.003959|
|         106|  4.7778e+01|  0.0000e+00|   -3.314751|   -3.499075|    0.002291|   -0.003684|
|         107|  4.7773e+01|  0.0000e+00|   -3.314080|   -3.497205|    0.002060|   -0.003391|
|         108|  4.7767e+01|  0.0000e+00|   -3.314566|   -3.496846|    0.001831|   -0.003081|
|         109|  4.7761e+01|  0.0000e+00|   -3.315887|   -3.497720|    0.001601|   -0.002757|
|         110|  4.7755e+01|  0.0000e+00|   -3.317584|   -3.499447|    0.001368|   -0.002420|
|         111|  4.7749e+01|  0.0000e+00|   -3.319083|   -3.501560|    0.001131|   -0.002071|
|         112|  4.7743e+01|  0.0000e+00|   -3.319730|   -3.503531|    0.000888|   -0.001712|
|         113|  4.7738e+01|  0.0000e+00|   -3.318878|   -3.504822|    0.000637|   -0.001346|
|         114|  4.7732e+01|  0.0000e+00|   -3.315998|   -3.504950|    0.000378|   -0.000973|
|         115|  4.7727e+01|  0.0000e+00|   -3.310778|   -3.503547|    0.000109|   -0.000597|
|         116|  4.7721e+01|  0.0000e+00|   -3.303209|   -3.500452|   -0.000171|   -0.000218|
|         117|  4.7716e+01|  0.0000e+00|   -3.293586|   -3.495723|   -0.000462|    0.000160|
|         118|  4.7711e+01|  0.0000e+00|   -3.282454|   -3.489609|   -0.000765|    0.000539|
|         119|  4.7706e+01|  0.0000e+00|   -3.270515|   -3.482533|   -0.001079|    0.000914|
|         120|  4.7701e+01|  0.0000e+00|   -3.258511|   -3.475006|   -0.001402|    0.001284|
|         121|  4.7696e+01|  0.0000e+00|   -3.247140|   -3.467577|   -0.001736|    0.001649|
|         122|  4.7692e+01|  0.0000e+00|   -3.237000|   -3.460749|   -0.002078|    0.002007|
|         123|  4.7688e+01|  0.0000e+00|   -3.228558|   -3.454937|   -0.002428|    0.002356|
|         124|  4.7684e+01|  0.0000e+00|   -3.222151|   -3.450451|   -0.002784|    0.002696|
|         125|  4.7688e+01|  0.0000e+00|   -3.217991|   -3.447485|   -0.003144|    0.003025|
|         126|  4.7685e+01|  0.0000e+00|   -3.216180|   -3.446130|   -0.003505|    0.003342|
|         127|  4.7683e+01|  0.0000e+00|   -3.216732|   -3.446367|   -0.003864|    0.003648|
|         128|  4.7681e+01|  0.0000e+00|   -3.219574|   -3.448086|   -0.004219|    0.003942|
|         129|  4.7679e+01|  0.0000e+00|   -3.224557|   -3.451082|   -0.004566|    0.004223|
|         130|  4.7677e+01|  0.0000e+00|   -3.231473|   -3.455097|   -0.004903|    0.004493|
|         131|  4.7675e+01|  0.0000e+00|   -3.240063|   -3.459830|   -0.005225|    0.004750|
|         132|  4.7673e+01|  0.0000e+00|   -3.250026|   -3.464974|   -0.005529|    0.004994|
|         133|  4.7671e+01|  0.0000e+00|   -3.261034|   -3.470246|   -0.005814|    0.005227|
|         134|  4.7669e+01|  0.0000e+00|   -3.272755|   -3.475407|   -0.006074|    0.005448|
|         135|  4.7668e+01|  0.0000e+00|   -3.284871|   -3.480287|   -0.006309|    0.005658|
|         136|  4.7665e+01|  0.0000e+00|   -3.297104|   -3.484796|   -0.006514|    0.005857|
|         137|  4.7663e+01|  0.0000e+00|   -3.309244|   -3.488919|   -0.006688|    0.006047|
|         138|  4.7662e+01|  0.0000e+00|   -3.321155|   -3.492683|   -0.006828|    0.006226|
|         139|  4.7660e+01|  0.0000e+00|   -3.332782|   -3.496136|   -0.006932|    0.006397|
|         140|  4.7658e+01|  0.0000e+00|   -3.344135|   -3.499346|   -0.006999|    0.006559|
|         141|  4.7655e+01|  0.0000e+00|   -3.355265|   -3.502382|   -0.007027|    0.006712|
|         142|  4.7653e+01|  0.0000e+00|   -3.366235|   -3.505272|   -0.007016|    0.006859|
|         143|  4.7651e+01|  0.0000e+00|   -3.377077|   -3.507985|   -0.006964|    0.006998|
|         144|  4.7649e+01|  0.0000e+00|   -3.387756|   -3.510427|   -0.006872|    0.007130|
|         145|  4.7648e+01|  0.0000e+00|   -3.398145|   -3.512470|   -0.006740|    0.007256|
|         146|  4.7648e+01|  0.0000e+00|   -3.408013|   -3.513996|   -0.006570|    0.007375|
|         147|  4.7647e+01|  0.0000e+00|   -3.417033|   -3.514900|   -0.006362|    0.007487|
|         148|  4.7646e+01|  0.0000e+00|   -3.424814|   -3.515113|   -0.006118|    0.007593|
|         149|  4.7644e+01|  0.0000e+00|   -3.430970|   -3.514607|   -0.005840|    0.007693|
|         150|  4.7644e+01|  0.0000e+00|   -3.435191|   -3.513421|   -0.005530|    0.007786|
|         151|  4.7644e+01|  0.0000e+00|   -3.437327|   -3.511683|   -0.005189|    0.007872|
|         152|  4.7645e+01|  0.0000e+00|   -3.437434|   -3.509580|   -0.004822|    0.007952|
|         153|  4.7645e+01|  0.0000e+00|   -3.435788|   -3.507328|   -0.004429|    0.008023|
|         154|  4.7645e+01|  0.0000e+00|   -3.432845|   -3.505155|   -0.004014|    0.008087|
|         155|  4.7646e+01|  0.0000e+00|   -3.429177|   -3.503286|   -0.003579|    0.008143|
|         156|  4.7644e+01|  0.0000e+00|   -3.425388|   -3.501921|   -0.003127|    0.008190|
|         157|  4.7641e+01|  0.0000e+00|   -3.422053|   -3.501222|   -0.002660|    0.008228|
|         158|  4.7638e+01|  0.0000e+00|   -3.419661|   -3.501286|   -0.002181|    0.008257|
|         159|  4.7635e+01|  0.0000e+00|   -3.418597|   -3.502161|   -0.001693|    0.008276|
|         160|  4.7631e+01|  0.0000e+00|   -3.419113|   -3.503830|   -0.001197|    0.008284|
|         161|  4.7630e+01|  0.0000e+00|   -3.421349|   -3.506211|   -0.000696|    0.008283|
|         162|  4.7631e+01|  0.0000e+00|   -3.425311|   -3.509159|   -0.000194|    0.008270|
|         163|  4.7629e+01|  0.0000e+00|   -3.430895|   -3.512481|    0.000308|    0.008247|
|         164|  4.7628e+01|  0.0000e+00|   -3.437884|   -3.515946|    0.000808|    0.008213|
|         165|  4.7632e+01|  0.0000e+00|   -3.445952|   -3.519298|    0.001304|    0.008168|
|         166|  4.7634e+01|  0.0000e+00|   -3.454682|   -3.522275|    0.001794|    0.008111|
|         167|  4.7638e+01|  0.0000e+00|   -3.463575|   -3.524625|    0.002276|    0.008043|
|         168|  4.7640e+01|  0.0000e+00|   -3.472089|   -3.526137|    0.002749|    0.007965|
|         169|  4.7643e+01|  0.0000e+00|   -3.479674|   -3.526651|    0.003212|    0.007875|
|         170|  4.7644e+01|  0.0000e+00|   -3.485829|   -3.526085|    0.003663|    0.007775|
|         171|  4.7647e+01|  0.0000e+00|   -3.490157|   -3.524432|    0.004101|    0.007665|
|         172|  4.7645e+01|  0.0000e+00|   -3.492415|   -3.521765|    0.004525|    0.007544|
|         173|  4.7643e+01|  0.0000e+00|   -3.492542|   -3.518218|    0.004934|    0.007414|
|         174|  4.7641e+01|  0.0000e+00|   -3.490660|   -3.513971|    0.005328|    0.007274|
|         175|  4.7640e+01|  0.0000e+00|   -3.487046|   -3.509246|    0.005706|    0.007126|
|         176|  4.7640e+01|  0.0000e+00|   -3.482086|   -3.504269|    0.006067|    0.006969|
|         177|  4.7640e+01|  0.0000e+00|   -3.476217|   -3.499263|    0.006410|    0.006805|
|         178|  4.7641e+01|  0.0000e+00|   -3.469886|   -3.494427|    0.006737|    0.006633|
|         179|  4.7642e+01|  0.0000e+00|   -3.463508|   -3.489929|    0.007046|    0.006454|
|         180|  4.7643e+01|  0.0000e+00|   -3.457446|   -3.485907|    0.007338|    0.006269|
|         181|  4.7641e+01|  0.0000e+00|   -3.451996|   -3.482464|    0.007613|    0.006079|
|         182|  4.7639e+01|  0.0000e+00|   -3.447383|   -3.479664|    0.007870|    0.005883|
|         183|  4.7639e+01|  0.0000e+00|   -3.443767|   -3.477539|    0.008111|    0.005682|
|         184|  4.7640e+01|  0.0000e+00|   -3.441241|   -3.476092|    0.008335|    0.005477|
|         185|  4.7638e+01|  0.0000e+00|   -3.439839|   -3.475295|    0.008545|    0.005269|
|         186|  4.7636e+01|  0.0000e+00|   -3.439536|   -3.475099|    0.008740|    0.005059|
|         187|  4.7634e+01|  0.0000e+00|   -3.440259|   -3.475437|    0.008921|    0.004846|
|         188|  4.7632e+01|  0.0000e+00|   -3.441889|   -3.476224|    0.009091|    0.004634|
|         189|  4.7629e+01|  0.0000e+00|   -3.444268|   -3.477369|    0.009248|    0.004421|
|         190|  4.7627e+01|  0.0000e+00|   -3.447209|   -3.478783|    0.009396|    0.004209|
|         191|  4.7625e+01|  0.0000e+00|   -3.450509|   -3.480388|    0.009534|    0.003997|
|         192|  4.7623e+01|  0.0000e+00|   -3.453960|   -3.482116|    0.009662|    0.003788|
|         193|  4.7621e+01|  0.0000e+00|   -3.457364|   -3.483918|    0.009784|    0.003581|
|         194|  4.7619e+01|  0.0000e+00|   -3.460550|   -3.485765|    0.009899|    0.003378|
|         195|  4.7618e+01|  0.0000e+00|   -3.463387|   -3.487650|    0.010010|    0.003180|
|         196|  4.7617e+01|  0.0000e+00|   -3.465795|   -3.489585|    0.010119|    0.002987|
|         197|  4.7615e+01|  0.0000e+00|   -3.467749|   -3.491584|    0.010225|    0.002801|
|         198|  4.7615e+01|  0.0000e+00|   -3.469276|   -3.493667|    0.010329|    0.002621|
|         199|  4.7613e+01|  0.0000e+00|   -3.470444|   -3.495856|    0.010432|    0.002448|
|         200|  4.7612e+01|  0.0000e+00|   -3.471355|   -3.498160|    0.010536|    0.002284|
|         201|  4.7612e+01|  0.0000e+00|   -3.472127|   -3.500580|    0.010642|    0.002128|
|         202|  4.7611e+01|  0.0000e+00|   -3.472882|   -3.503101|    0.010749|    0.001981|
|         203|  4.7610e+01|  0.0000e+00|   -3.473731|   -3.505687|    0.010860|    0.001845|
|         204|  4.7609e+01|  0.0000e+00|   -3.474767|   -3.508281|    0.010973|    0.001719|
|         205|  4.7608e+01|  0.0000e+00|   -3.476060|   -3.510812|    0.011090|    0.001603|
|         206|  4.7607e+01|  0.0000e+00|   -3.477650|   -3.513199|    0.011211|    0.001499|
|         207|  4.7607e+01|  0.0000e+00|   -3.479555|   -3.515344|    0.011337|    0.001407|
|         208|  4.7606e+01|  0.0000e+00|   -3.481769|   -3.517145|    0.011466|    0.001327|
|         209|  4.7605e+01|  0.0000e+00|   -3.484275|   -3.518507|    0.011601|    0.001259|
|         210|  4.7605e+01|  0.0000e+00|   -3.487044|   -3.519342|    0.011739|    0.001203|
|         211|  4.7605e+01|  0.0000e+00|   -3.490041|   -3.519578|    0.011882|    0.001160|
|         212|  4.7604e+01|  0.0000e+00|   -3.493232|   -3.519158|    0.012029|    0.001129|
|         213|  4.7603e+01|  0.0000e+00|   -3.496583|   -3.518053|    0.012180|    0.001110|
|         214|  4.7602e+01|  0.0000e+00|   -3.500065|   -3.516256|    0.012333|    0.001103|
|         215|  4.7601e+01|  0.0000e+00|   -3.503651|   -3.513789|    0.012488|    0.001108|
|         216|  4.7603e+01|  0.0000e+00|   -3.507317|   -3.510692|    0.012644|    0.001125|
|         217|  4.7602e+01|  0.0000e+00|   -3.511031|   -3.507016|    0.012801|    0.001152|
|         218|  4.7599e+01|  0.0000e+00|   -3.514757|   -3.502825|    0.012957|    0.001190|
|         219|  4.7596e+01|  0.0000e+00|   -3.518440|   -3.498190|    0.013113|    0.001239|
|         220|  4.7593e+01|  0.0000e+00|   -3.522012|   -3.493180|    0.013266|    0.001298|
|         221|  4.7590e+01|  0.0000e+00|   -3.525385|   -3.487861|    0.013418|    0.001365|
|         222|  4.7587e+01|  0.0000e+00|   -3.528454|   -3.482295|    0.013565|    0.001442|
|         223|  4.7584e+01|  0.0000e+00|   -3.531108|   -3.476535|    0.013708|    0.001527|
|         224|  4.7581e+01|  0.0000e+00|   -3.533230|   -3.470628|    0.013846|    0.001620|
|         225|  4.7578e+01|  0.0000e+00|   -3.534717|   -3.464619|    0.013977|    0.001720|
|         226|  4.7575e+01|  0.0000e+00|   -3.535485|   -3.458547|    0.014100|    0.001826|
|         227|  4.7572e+01|  0.0000e+00|   -3.535487|   -3.452446|    0.014216|    0.001939|
|         228|  4.7569e+01|  0.0000e+00|   -3.534722|   -3.446347|    0.014323|    0.002057|
|         229|  4.7566e+01|  0.0000e+00|   -3.533240|   -3.440276|    0.014420|    0.002180|
|         230|  4.7563e+01|  0.0000e+00|   -3.531138|   -3.434252|    0.014507|    0.002307|
|         231|  4.7560e+01|  0.0000e+00|   -3.528559|   -3.428298|    0.014583|    0.002438|
|         232|  4.7558e+01|  0.0000e+00|   -3.525680|   -3.422427|    0.014648|    0.002572|
|         233|  4.7555e+01|  0.0000e+00|   -3.522699|   -3.416642|    0.014701|    0.002709|
|         234|  4.7552e+01|  0.0000e+00|   -3.519824|   -3.410953|    0.014741|    0.002848|
|         235|  4.7549e+01|  0.0000e+00|   -3.517258|   -3.405357|    0.014769|    0.002989|
|         236|  4.7546e+01|  0.0000e+00|   -3.515188|   -3.399855|    0.014783|    0.003131|
|         237|  4.7543e+01|  0.0000e+00|   -3.513779|   -3.394443|    0.014785|    0.003273|
|         238|  4.7540e+01|  0.0000e+00|   -3.513170|   -3.389111|    0.014773|    0.003415|
|         239|  4.7538e+01|  0.0000e+00|   -3.513469|   -3.383847|    0.014749|    0.003557|
|         240|  4.7535e+01|  0.0000e+00|   -3.514750|   -3.378635|    0.014711|    0.003698|
|         241|  4.7533e+01|  0.0000e+00|   -3.517054|   -3.373455|    0.014660|    0.003837|
|         242|  4.7530e+01|  0.0000e+00|   -3.520392|   -3.368290|    0.014597|    0.003974|
|         243|  4.7528e+01|  0.0000e+00|   -3.524736|   -3.363127|    0.014521|    0.004109|
|         244|  4.7526e+01|  0.0000e+00|   -3.530031|   -3.357959|    0.014433|    0.004241|
|         245|  4.7523e+01|  0.0000e+00|   -3.536191|   -3.352779|    0.014334|    0.004370|
|         246|  4.7521e+01|  0.0000e+00|   -3.543099|   -3.347583|    0.014223|    0.004495|
|         247|  4.7518e+01|  0.0000e+00|   -3.550612|   -3.342371|    0.014102|    0.004616|
|         248|  4.7516e+01|  0.0000e+00|   -3.558564|   -3.337149|    0.013970|    0.004732|
|         249|  4.7513e+01|  0.0000e+00|   -3.566767|   -3.331931|    0.013829|    0.004844|
|         250|  4.7511e+01|  0.0000e+00|   -3.575024|   -3.326735|    0.013679|    0.004950|

|         251|  4.7559e+01|  0.0000e+00|   -3.583138|   -3.321588|    0.013521|    0.005051|
|         252|  4.7556e+01|  0.0000e+00|   -3.590920|   -3.316518|    0.013355|    0.005146|
|         253|  4.7555e+01|  0.0000e+00|   -3.598199|   -3.311559|    0.013182|    0.005235|
|         254|  4.7555e+01|  0.0000e+00|   -3.604843|   -3.306744|    0.013003|    0.005318|
|         255|  4.7554e+01|  0.0000e+00|   -3.610761|   -3.302103|    0.012818|    0.005394|
|         256|  4.7552e+01|  0.0000e+00|   -3.615909|   -3.297667|    0.012628|    0.005463|
|         257|  4.7552e+01|  0.0000e+00|   -3.620300|   -3.293464|    0.012433|    0.005526|
|         258|  4.7554e+01|  0.0000e+00|   -3.623997|   -3.289519|    0.012235|    0.005581|
|         259|  4.7554e+01|  0.0000e+00|   -3.627107|   -3.285852|    0.012033|    0.005630|
|         260|  4.7552e+01|  0.0000e+00|   -3.629769|   -3.282478|    0.011829|    0.005671|
|         261|  4.7552e+01|  0.0000e+00|   -3.632141|   -3.279412|    0.011624|    0.005705|
|         262|  4.7552e+01|  0.0000e+00|   -3.634398|   -3.276662|    0.011416|    0.005731|
|         263|  4.7551e+01|  0.0000e+00|   -3.636711|   -3.274230|    0.011208|    0.005751|
|         264|  4.7550e+01|  0.0000e+00|   -3.639239|   -3.272116|    0.011000|    0.005762|
|         265|  4.7549e+01|  0.0000e+00|   -3.642128|   -3.270314|    0.010792|    0.005766|
|         266|  4.7547e+01|  0.0000e+00|   -3.645501|   -3.268815|    0.010585|    0.005763|
|         267|  4.7545e+01|  0.0000e+00|   -3.649452|   -3.267606|    0.010379|    0.005753|
|         268|  4.7543e+01|  0.0000e+00|   -3.654051|   -3.266672|    0.010175|    0.005736|
|         269|  4.7540e+01|  0.0000e+00|   -3.659338|   -3.265992|    0.009973|    0.005711|
|         270|  4.7538e+01|  0.0000e+00|   -3.665321|   -3.265542|    0.009774|    0.005680|
|         271|  4.7536e+01|  0.0000e+00|   -3.671980|   -3.265294|    0.009577|    0.005642|
|         272|  4.7534e+01|  0.0000e+00|   -3.679262|   -3.265224|    0.009384|    0.005598|
|         273|  4.7532e+01|  0.0000e+00|   -3.687081|   -3.265303|    0.009195|    0.005546|
|         274|  4.7531e+01|  0.0000e+00|   -3.695317|   -3.265500|    0.009009|    0.005489|
|         275|  4.7529e+01|  0.0000e+00|   -3.703818|   -3.265788|    0.008828|    0.005426|
|         276|  4.7526e+01|  0.0000e+00|   -3.712402|   -3.266138|    0.008651|    0.005357|
|         277|  4.7524e+01|  0.0000e+00|   -3.720853|   -3.266524|    0.008479|    0.005283|
|         278|  4.7522e+01|  0.0000e+00|   -3.728936|   -3.266921|    0.008313|    0.005204|
|         279|  4.7520e+01|  0.0000e+00|   -3.736405|   -3.267305|    0.008151|    0.005120|
|         280|  4.7519e+01|  0.0000e+00|   -3.743014|   -3.267658|    0.007995|    0.005031|
|         281|  4.7517e+01|  0.0000e+00|   -3.748541|   -3.267965|    0.007845|    0.004938|
|         282|  4.7514e+01|  0.0000e+00|   -3.752798|   -3.268218|    0.007701|    0.004842|
|         283|  4.7513e+01|  0.0000e+00|   -3.755655|   -3.268412|    0.007562|    0.004741|
|         284|  4.7511e+01|  0.0000e+00|   -3.757052|   -3.268546|    0.007431|    0.004638|
|         285|  4.7509e+01|  0.0000e+00|   -3.757005|   -3.268623|    0.007306|    0.004532|
|         286|  4.7508e+01|  0.0000e+00|   -3.755605|   -3.268648|    0.007187|    0.004423|
|         287|  4.7507e+01|  0.0000e+00|   -3.753010|   -3.268633|    0.007075|    0.004312|
|         288|  4.7508e+01|  0.0000e+00|   -3.749437|   -3.268589|    0.006970|    0.004200|
|         289|  4.7508e+01|  0.0000e+00|   -3.745122|   -3.268533|    0.006872|    0.004086|
|         290|  4.7508e+01|  0.0000e+00|   -3.740324|   -3.268481|    0.006781|    0.003971|
|         291|  4.7507e+01|  0.0000e+00|   -3.735296|   -3.268454|    0.006697|    0.003856|
|         292|  4.7507e+01|  0.0000e+00|   -3.730279|   -3.268471|    0.006620|    0.003741|
|         293|  4.7507e+01|  0.0000e+00|   -3.725490|   -3.268550|    0.006551|    0.003625|
|         294|  4.7506e+01|  0.0000e+00|   -3.721113|   -3.268709|    0.006490|    0.003511|
|         295|  4.7506e+01|  0.0000e+00|   -3.717303|   -3.268965|    0.006436|    0.003397|
|         296|  4.7506e+01|  0.0000e+00|   -3.714193|   -3.269333|    0.006390|    0.003285|
|         297|  4.7506e+01|  0.0000e+00|   -3.711885|   -3.269826|    0.006352|    0.003175|
|         298|  4.7507e+01|  0.0000e+00|   -3.710453|   -3.270454|    0.006322|    0.003067|
|         299|  4.7507e+01|  0.0000e+00|   -3.709944|   -3.271227|    0.006300|    0.002961|
|         300|  4.7508e+01|  0.0000e+00|   -3.710386|   -3.272149|    0.006285|    0.002859|
|         301|  4.7509e+01|  0.0000e+00|   -3.711783|   -3.273221|    0.006279|    0.002759|
|         302|  4.7509e+01|  0.0000e+00|   -3.714122|   -3.274445|    0.006280|    0.002663|
|         303|  4.7509e+01|  0.0000e+00|   -3.717377|   -3.275817|    0.006290|    0.002570|
|         304|  4.7511e+01|  0.0000e+00|   -3.721504|   -3.277333|    0.006307|    0.002482|
|         305|  4.7512e+01|  0.0000e+00|   -3.726446|   -3.278988|    0.006332|    0.002397|
|         306|  4.7512e+01|  0.0000e+00|   -3.732138|   -3.280774|    0.006364|    0.002317|
|         307|  4.7512e+01|  0.0000e+00|   -3.738500|   -3.282684|    0.006403|    0.002241|
|         308|  4.7511e+01|  0.0000e+00|   -3.745445|   -3.284709|    0.006451|    0.002170|
|         309|  4.7510e+01|  0.0000e+00|   -3.752876|   -3.286840|    0.006506|    0.002105|
|         310|  4.7509e+01|  0.0000e+00|   -3.760691|   -3.289070|    0.006568|    0.002046|
|         311|  4.7509e+01|  0.0000e+00|   -3.768786|   -3.291389|    0.006638|    0.001991|
|         312|  4.7509e+01|  0.0000e+00|   -3.777054|   -3.293792|    0.006715|    0.001942|
|         313|  4.7510e+01|  0.0000e+00|   -3.785390|   -3.296272|    0.006798|    0.001899|
|         314|  4.7509e+01|  0.0000e+00|   -3.793689|   -3.298826|    0.006887|    0.001861|
|         315|  4.7508e+01|  0.0000e+00|   -3.801859|   -3.301451|    0.006983|    0.001829|
|         316|  4.7507e+01|  0.0000e+00|   -3.809808|   -3.304145|    0.007085|    0.001803|
|         317|  4.7507e+01|  0.0000e+00|   -3.817450|   -3.306907|    0.007192|    0.001782|
|         318|  4.7507e+01|  0.0000e+00|   -3.824708|   -3.309739|    0.007305|    0.001767|
|         319|  4.7507e+01|  0.0000e+00|   -3.831516|   -3.312640|    0.007423|    0.001758|
|         320|  4.7506e+01|  0.0000e+00|   -3.837802|   -3.315612|    0.007545|    0.001753|
|         321|  4.7505e+01|  0.0000e+00|   -3.843508|   -3.318655|    0.007672|    0.001754|
|         322|  4.7505e+01|  0.0000e+00|   -3.848573|   -3.321769|    0.007802|    0.001761|
|         323|  4.7504e+01|  0.0000e+00|   -3.852939|   -3.324954|    0.007935|    0.001772|
|         324|  4.7503e+01|  0.0000e+00|   -3.856549|   -3.328211|    0.008071|    0.001788|
|         325|  4.7504e+01|  0.0000e+00|   -3.859348|   -3.331538|    0.008209|    0.001810|
|         326|  4.7504e+01|  0.0000e+00|   -3.861283|   -3.334933|    0.008350|    0.001835|
|         327|  4.7503e+01|  0.0000e+00|   -3.862308|   -3.338392|    0.008491|    0.001866|
|         328|  4.7504e+01|  0.0000e+00|   -3.862398|   -3.341912|    0.008634|    0.001900|
|         329|  4.7504e+01|  0.0000e+00|   -3.861540|   -3.345487|    0.008777|    0.001938|
|         330|  4.7505e+01|  0.0000e+00|   -3.859735|   -3.349113|    0.008920|    0.001980|
|         331|  4.7504e+01|  0.0000e+00|   -3.857009|   -3.352783|    0.009062|    0.002025|
|         332|  4.7504e+01|  0.0000e+00|   -3.853411|   -3.356490|    0.009203|    0.002074|
|         333|  4.7504e+01|  0.0000e+00|   -3.849019|   -3.360227|    0.009342|    0.002125|
|         334|  4.7505e+01|  0.0000e+00|   -3.843930|   -3.363986|    0.009480|    0.002180|
|         335|  4.7505e+01|  0.0000e+00|   -3.838262|   -3.367759|    0.009614|    0.002236|
|         336|  4.7504e+01|  0.0000e+00|   -3.832143|   -3.371538|    0.009746|    0.002295|
|         337|  4.7504e+01|  0.0000e+00|   -3.825714|   -3.375313|    0.009874|    0.002355|
|         338|  4.7503e+01|  0.0000e+00|   -3.819121|   -3.379075|    0.009998|    0.002417|
|         339|  4.7503e+01|  0.0000e+00|   -3.812502|   -3.382816|    0.010117|    0.002480|
|         340|  4.7501e+01|  0.0000e+00|   -3.805999|   -3.386528|    0.010231|    0.002544|
|         341|  4.7500e+01|  0.0000e+00|   -3.799742|   -3.390203|    0.010340|    0.002608|
|         342|  4.7499e+01|  0.0000e+00|   -3.793847|   -3.393834|    0.010444|    0.002673|
|         343|  4.7498e+01|  0.0000e+00|   -3.788419|   -3.397416|    0.010542|    0.002739|
|         344|  4.7496e+01|  0.0000e+00|   -3.783553|   -3.400942|    0.010634|    0.002804|
|         345|  4.7495e+01|  0.0000e+00|   -3.779329|   -3.404408|    0.010719|    0.002869|
|         346|  4.7496e+01|  0.0000e+00|   -3.775814|   -3.407808|    0.010798|    0.002933|
|         347|  4.7496e+01|  0.0000e+00|   -3.773061|   -3.411138|    0.010871|    0.002997|
|         348|  4.7497e+01|  0.0000e+00|   -3.771109|   -3.414396|    0.010937|    0.003059|
|         349|  4.7497e+01|  0.0000e+00|   -3.769982|   -3.417577|    0.010995|    0.003121|
|         350|  4.7497e+01|  0.0000e+00|   -3.769694|   -3.420678|    0.011047|    0.003181|
|         351|  4.7497e+01|  0.0000e+00|   -3.770248|   -3.423695|    0.011093|    0.003240|
|         352|  4.7498e+01|  0.0000e+00|   -3.771632|   -3.426622|    0.011131|    0.003298|
|         353|  4.7499e+01|  0.0000e+00|   -3.773818|   -3.429454|    0.011162|    0.003353|
|         354|  4.7500e+01|  0.0000e+00|   -3.776770|   -3.432185|    0.011186|    0.003406|
|         355|  4.7502e+01|  0.0000e+00|   -3.780436|   -3.434808|    0.011203|    0.003458|
|         356|  4.7503e+01|  0.0000e+00|   -3.784753|   -3.437315|    0.011214|    0.003507|
|         357|  4.7504e+01|  0.0000e+00|   -3.789639|   -3.439700|    0.011218|    0.003554|
|         358|  4.7506e+01|  0.0000e+00|   -3.795001|   -3.441955|    0.011215|    0.003599|
|         359|  4.7508e+01|  0.0000e+00|   -3.800736|   -3.444072|    0.011206|    0.003640|
|         360|  4.7509e+01|  0.0000e+00|   -3.806717|   -3.446042|    0.011191|    0.003680|
|         361|  4.7508e+01|  0.0000e+00|   -3.812819|   -3.447859|    0.011169|    0.003717|
|         362|  4.7508e+01|  0.0000e+00|   -3.818904|   -3.449514|    0.011142|    0.003750|
|         363|  4.7508e+01|  0.0000e+00|   -3.824822|   -3.451000|    0.011109|    0.003782|
|         364|  4.7508e+01|  0.0000e+00|   -3.830429|   -3.452310|    0.011070|    0.003810|
|         365|  4.7508e+01|  0.0000e+00|   -3.835577|   -3.453440|    0.011026|    0.003835|
|         366|  4.7508e+01|  0.0000e+00|   -3.840134|   -3.454385|    0.010977|    0.003858|
|         367|  4.7509e+01|  0.0000e+00|   -3.843981|   -3.455141|    0.010923|    0.003877|
|         368|  4.7509e+01|  0.0000e+00|   -3.847023|   -3.455708|    0.010864|    0.003894|
|         369|  4.7510e+01|  0.0000e+00|   -3.849192|   -3.456087|    0.010801|    0.003907|
|         370|  4.7509e+01|  0.0000e+00|   -3.850450|   -3.456279|    0.010734|    0.003918|
|         371|  4.7509e+01|  0.0000e+00|   -3.850785|   -3.456289|    0.010663|    0.003925|
|         372|  4.7510e+01|  0.0000e+00|   -3.850224|   -3.456122|    0.010588|    0.003930|
|         373|  4.7510e+01|  0.0000e+00|   -3.848815|   -3.455784|    0.010510|    0.003932|
|         374|  4.7512e+01|  0.0000e+00|   -3.846635|   -3.455282|    0.010429|    0.003930|
|         375|  4.7512e+01|  0.0000e+00|   -3.843780|   -3.454625|    0.010344|    0.003926|
|         376|  4.7512e+01|  0.0000e+00|   -3.840363|   -3.453822|    0.010257|    0.003919|
|         377|  4.7512e+01|  0.0000e+00|   -3.836504|   -3.452884|    0.010168|    0.003909|
|         378|  4.7512e+01|  0.0000e+00|   -3.832329|   -3.451824|    0.010077|    0.003896|
|         379|  4.7512e+01|  0.0000e+00|   -3.827962|   -3.450654|    0.009983|    0.003881|
|         380|  4.7512e+01|  0.0000e+00|   -3.823527|   -3.449386|    0.009888|    0.003863|
|         381|  4.7511e+01|  0.0000e+00|   -3.819143|   -3.448032|    0.009792|    0.003842|
|         382|  4.7510e+01|  0.0000e+00|   -3.814921|   -3.446604|    0.009695|    0.003819|
|         383|  4.7510e+01|  0.0000e+00|   -3.810965|   -3.445114|    0.009597|    0.003793|
|         384|  4.7509e+01|  0.0000e+00|   -3.807366|   -3.443573|    0.009498|    0.003765|
|         385|  4.7510e+01|  0.0000e+00|   -3.804208|   -3.441993|    0.009400|    0.003735|
|         386|  4.7511e+01|  0.0000e+00|   -3.801568|   -3.440384|    0.009301|    0.003702|
|         387|  4.7510e+01|  0.0000e+00|   -3.799509|   -3.438755|    0.009203|    0.003667|
|         388|  4.7508e+01|  0.0000e+00|   -3.798086|   -3.437118|    0.009105|    0.003631|
|         389|  4.7506e+01|  0.0000e+00|   -3.797346|   -3.435478|    0.009009|    0.003592|
|         390|  4.7504e+01|  0.0000e+00|   -3.797323|   -3.433843|    0.008914|    0.003552|
|         391|  4.7502e+01|  0.0000e+00|   -3.798041|   -3.432215|    0.008820|    0.003510|
|         392|  4.7501e+01|  0.0000e+00|   -3.799518|   -3.430598|    0.008728|    0.003466|
|         393|  4.7499e+01|  0.0000e+00|   -3.801760|   -3.428995|    0.008639|    0.003422|
|         394|  4.7497e+01|  0.0000e+00|   -3.804762|   -3.427404|    0.008552|    0.003375|
|         395|  4.7496e+01|  0.0000e+00|   -3.808505|   -3.425827|    0.008467|    0.003328|
|         396|  4.7494e+01|  0.0000e+00|   -3.812963|   -3.424264|    0.008386|    0.003279|
|         397|  4.7493e+01|  0.0000e+00|   -3.818105|   -3.422713|    0.008308|    0.003230|
|         398|  4.7491e+01|  0.0000e+00|   -3.823887|   -3.421170|    0.008233|    0.003179|
|         399|  4.7490e+01|  0.0000e+00|   -3.830252|   -3.419634|    0.008163|    0.003128|
|         400|  4.7489e+01|  0.0000e+00|   -3.837133|   -3.418101|    0.008096|    0.003077|
|         401|  4.7487e+01|  0.0000e+00|   -3.844460|   -3.416569|    0.008033|    0.003025|
|         402|  4.7485e+01|  0.0000e+00|   -3.852147|   -3.415033|    0.007974|    0.002972|
|         403|  4.7484e+01|  0.0000e+00|   -3.860103|   -3.413489|    0.007920|    0.002919|
|         404|  4.7482e+01|  0.0000e+00|   -3.868236|   -3.411935|    0.007871|    0.002866|
|         405|  4.7480e+01|  0.0000e+00|   -3.876450|   -3.410366|    0.007826|    0.002813|
|         406|  4.7479e+01|  0.0000e+00|   -3.884648|   -3.408780|    0.007786|    0.002760|
|         407|  4.7477e+01|  0.0000e+00|   -3.892737|   -3.407177|    0.007751|    0.002707|
|         408|  4.7475e+01|  0.0000e+00|   -3.900624|   -3.405554|    0.007720|    0.002655|
|         409|  4.7473e+01|  0.0000e+00|   -3.908225|   -3.403911|    0.007695|    0.002603|
|         410|  4.7472e+01|  0.0000e+00|   -3.915470|   -3.402246|    0.007674|    0.002552|
|         411|  4.7470e+01|  0.0000e+00|   -3.922298|   -3.400556|    0.007659|    0.002501|
|         412|  4.7468e+01|  0.0000e+00|   -3.928658|   -3.398839|    0.007649|    0.002451|
|         413|  4.7467e+01|  0.0000e+00|   -3.934514|   -3.397094|    0.007643|    0.002402|
|         414|  4.7465e+01|  0.0000e+00|   -3.939842|   -3.395321|    0.007643|    0.002353|
|         415|  4.7464e+01|  0.0000e+00|   -3.944625|   -3.393518|    0.007647|    0.002306|
|         416|  4.7462e+01|  0.0000e+00|   -3.948856|   -3.391684|    0.007655|    0.002260|
|         417|  4.7461e+01|  0.0000e+00|   -3.952535|   -3.389818|    0.007669|    0.002215|
|         418|  4.7459e+01|  0.0000e+00|   -3.955668|   -3.387918|    0.007686|    0.002172|
|         419|  4.7458e+01|  0.0000e+00|   -3.958263|   -3.385984|    0.007708|    0.002130|
|         420|  4.7457e+01|  0.0000e+00|   -3.960330|   -3.384014|    0.007734|    0.002090|
|         421|  4.7455e+01|  0.0000e+00|   -3.961871|   -3.382008|    0.007764|    0.002051|
|         422|  4.7454e+01|  0.0000e+00|   -3.962898|   -3.379967|    0.007799|    0.002014|
|         423|  4.7452e+01|  0.0000e+00|   -3.963413|   -3.377891|    0.007837|    0.001979|
|         424|  4.7451e+01|  0.0000e+00|   -3.963430|   -3.375780|    0.007879|    0.001947|
|         425|  4.7450e+01|  0.0000e+00|   -3.962960|   -3.373634|    0.007924|    0.001916|
|         426|  4.7449e+01|  0.0000e+00|   -3.962018|   -3.371456|    0.007972|    0.001887|
|         427|  4.7448e+01|  0.0000e+00|   -3.960622|   -3.369246|    0.008023|    0.001860|
|         428|  4.7447e+01|  0.0000e+00|   -3.958793|   -3.367007|    0.008078|    0.001836|
|         429|  4.7446e+01|  0.0000e+00|   -3.956563|   -3.364740|    0.008134|    0.001814|
|         430|  4.7445e+01|  0.0000e+00|   -3.953976|   -3.362448|    0.008193|    0.001794|
|         431|  4.7444e+01|  0.0000e+00|   -3.951070|   -3.360135|    0.008254|    0.001777|
|         432|  4.7443e+01|  0.0000e+00|   -3.947890|   -3.357802|    0.008318|    0.001762|
|         433|  4.7442e+01|  0.0000e+00|   -3.944489|   -3.355455|    0.008383|    0.001749|
|         434|  4.7441e+01|  0.0000e+00|   -3.940916|   -3.353097|    0.008450|    0.001739|
|         435|  4.7440e+01|  0.0000e+00|   -3.937207|   -3.350733|    0.008518|    0.001731|
|         436|  4.7439e+01|  0.0000e+00|   -3.933432|   -3.348366|    0.008587|    0.001726|
|         437|  4.7438e+01|  0.0000e+00|   -3.929635|   -3.346001|    0.008657|    0.001723|
|         438|  4.7437e+01|  0.0000e+00|   -3.925850|   -3.343644|    0.008728|    0.001723|
|         439|  4.7436e+01|  0.0000e+00|   -3.922110|   -3.341297|    0.008801|    0.001725|
|         440|  4.7435e+01|  0.0000e+00|   -3.918438|   -3.338965|    0.008873|    0.001730|
|         441|  4.7434e+01|  0.0000e+00|   -3.914859|   -3.336652|    0.008947|    0.001737|
|         442|  4.7433e+01|  0.0000e+00|   -3.911386|   -3.334361|    0.009020|    0.001746|
|         443|  4.7432e+01|  0.0000e+00|   -3.908025|   -3.332096|    0.009094|    0.001758|
|         444|  4.7431e+01|  0.0000e+00|   -3.904774|   -3.329859|    0.009168|    0.001773|
|         445|  4.7430e+01|  0.0000e+00|   -3.901626|   -3.327654|    0.009242|    0.001790|
|         446|  4.7429e+01|  0.0000e+00|   -3.898558|   -3.325481|    0.009315|    0.001809|
|         447|  4.7428e+01|  0.0000e+00|   -3.895553|   -3.323346|    0.009389|    0.001830|
|         448|  4.7427e+01|  0.0000e+00|   -3.892587|   -3.321250|    0.009462|    0.001853|
|         449|  4.7426e+01|  0.0000e+00|   -3.889641|   -3.319197|    0.009535|    0.001879|
|         450|  4.7425e+01|  0.0000e+00|   -3.886701|   -3.317189|    0.009608|    0.001907|
|         451|  4.7424e+01|  0.0000e+00|   -3.883749|   -3.315227|    0.009680|    0.001936|
|         452|  4.7422e+01|  0.0000e+00|   -3.880769|   -3.313316|    0.009751|    0.001968|
|         453|  4.7422e+01|  0.0000e+00|   -3.877754|   -3.311456|    0.009822|    0.002002|
|         454|  4.7421e+01|  0.0000e+00|   -3.874692|   -3.309652|    0.009892|    0.002037|
|         455|  4.7420e+01|  0.0000e+00|   -3.871593|   -3.307903|    0.009962|    0.002074|
|         456|  4.7419e+01|  0.0000e+00|   -3.868457|   -3.306214|    0.010032|    0.002112|
|         457|  4.7418e+01|  0.0000e+00|   -3.865293|   -3.304585|    0.010100|    0.002152|
|         458|  4.7417e+01|  0.0000e+00|   -3.862115|   -3.303021|    0.010169|    0.002194|
|         459|  4.7416e+01|  0.0000e+00|   -3.858942|   -3.301524|    0.010236|    0.002237|
|         460|  4.7415e+01|  0.0000e+00|   -3.855793|   -3.300097|    0.010304|    0.002281|
|         461|  4.7414e+01|  0.0000e+00|   -3.852690|   -3.298742|    0.010371|    0.002326|
|         462|  4.7412e+01|  0.0000e+00|   -3.849655|   -3.297464|    0.010437|    0.002372|
|         463|  4.7411e+01|  0.0000e+00|   -3.846703|   -3.296264|    0.010503|    0.002419|
|         464|  4.7411e+01|  0.0000e+00|   -3.843847|   -3.295144|    0.010569|    0.002467|
|         465|  4.7411e+01|  0.0000e+00|   -3.841098|   -3.294108|    0.010634|    0.002516|
|         466|  4.7410e+01|  0.0000e+00|   -3.838458|   -3.293156|    0.010700|    0.002565|
|         467|  4.7409e+01|  0.0000e+00|   -3.835924|   -3.292289|    0.010765|    0.002615|
|         468|  4.7408e+01|  0.0000e+00|   -3.833485|   -3.291507|    0.010830|    0.002665|
|         469|  4.7406e+01|  0.0000e+00|   -3.831125|   -3.290809|    0.010894|    0.002715|
|         470|  4.7405e+01|  0.0000e+00|   -3.828823|   -3.290193|    0.010959|    0.002765|
|         471|  4.7404e+01|  0.0000e+00|   -3.826549|   -3.289658|    0.011023|    0.002815|
|         472|  4.7403e+01|  0.0000e+00|   -3.824267|   -3.289202|    0.011086|    0.002866|
|         473|  4.7402e+01|  0.0000e+00|   -3.821939|   -3.288822|    0.011150|    0.002915|
|         474|  4.7401e+01|  0.0000e+00|   -3.819525|   -3.288515|    0.011213|    0.002965|
|         475|  4.7401e+01|  0.0000e+00|   -3.816987|   -3.288278|    0.011275|    0.003014|
|         476|  4.7400e+01|  0.0000e+00|   -3.814284|   -3.288106|    0.011338|    0.003062|
|         477|  4.7399e+01|  0.0000e+00|   -3.811382|   -3.287996|    0.011400|    0.003110|
|         478|  4.7398e+01|  0.0000e+00|   -3.808252|   -3.287942|    0.011461|    0.003156|
|         479|  4.7397e+01|  0.0000e+00|   -3.804876|   -3.287941|    0.011522|    0.003202|
|         480|  4.7396e+01|  0.0000e+00|   -3.801243|   -3.287987|    0.011583|    0.003246|
|         481|  4.7396e+01|  0.0000e+00|   -3.797354|   -3.288076|    0.011643|    0.003289|
|         482|  4.7394e+01|  0.0000e+00|   -3.793220|   -3.288205|    0.011703|    0.003331|
|         483|  4.7393e+01|  0.0000e+00|   -3.788866|   -3.288370|    0.011762|    0.003371|
|         484|  4.7392e+01|  0.0000e+00|   -3.784325|   -3.288567|    0.011820|    0.003409|
|         485|  4.7391e+01|  0.0000e+00|   -3.779640|   -3.288792|    0.011877|    0.003446|
|         486|  4.7390e+01|  0.0000e+00|   -3.774862|   -3.289042|    0.011934|    0.003481|
|         487|  4.7389e+01|  0.0000e+00|   -3.770049|   -3.289315|    0.011990|    0.003513|
|         488|  4.7388e+01|  0.0000e+00|   -3.765262|   -3.289608|    0.012045|    0.003544|
|         489|  4.7387e+01|  0.0000e+00|   -3.760564|   -3.289918|    0.012098|    0.003573|
|         490|  4.7386e+01|  0.0000e+00|   -3.756020|   -3.290244|    0.012150|    0.003599|
|         491|  4.7385e+01|  0.0000e+00|   -3.751693|   -3.290584|    0.012201|    0.003624|
|         492|  4.7384e+01|  0.0000e+00|   -3.747642|   -3.290936|    0.012251|    0.003645|
|         493|  4.7383e+01|  0.0000e+00|   -3.743925|   -3.291299|    0.012299|    0.003665|
|         494|  4.7382e+01|  0.0000e+00|   -3.740592|   -3.291671|    0.012345|    0.003682|
|         495|  4.7381e+01|  0.0000e+00|   -3.737690|   -3.292050|    0.012389|    0.003696|
|         496|  4.7380e+01|  0.0000e+00|   -3.735259|   -3.292435|    0.012431|    0.003708|
|         497|  4.7379e+01|  0.0000e+00|   -3.733334|   -3.292822|    0.012472|    0.003718|
|         498|  4.7378e+01|  0.0000e+00|   -3.731943|   -3.293210|    0.012510|    0.003725|
|         499|  4.7377e+01|  0.0000e+00|   -3.731107|   -3.293594|    0.012546|    0.003729|
|         500|  4.7376e+01|  0.0000e+00|   -3.730842|   -3.293970|    0.012581|    0.003731|

|         501|  4.7399e+01|  0.0000e+00|   -3.731156|   -3.294335|    0.012613|    0.003730|
|         502|  4.7398e+01|  0.0000e+00|   -3.732051|   -3.294683|    0.012643|    0.003727|
|         503|  4.7397e+01|  0.0000e+00|   -3.733522|   -3.295011|    0.012670|    0.003721|
|         504|  4.7396e+01|  0.0000e+00|   -3.735558|   -3.295313|    0.012695|    0.003713|
|         505|  4.7396e+01|  0.0000e+00|   -3.738140|   -3.295583|    0.012718|    0.003702|
|         506|  4.7395e+01|  0.0000e+00|   -3.741247|   -3.295817|    0.012738|    0.003689|
|         507|  4.7394e+01|  0.0000e+00|   -3.744846|   -3.296010|    0.012755|    0.003673|
|         508|  4.7393e+01|  0.0000e+00|   -3.748899|   -3.296157|    0.012770|    0.003656|
|         509|  4.7392e+01|  0.0000e+00|   -3.753361|   -3.296252|    0.012783|    0.003636|
|         510|  4.7391e+01|  0.0000e+00|   -3.758178|   -3.296293|    0.012792|    0.003613|
|         511|  4.7390e+01|  0.0000e+00|   -3.763292|   -3.296274|    0.012799|    0.003589|
|         512|  4.7390e+01|  0.0000e+00|   -3.768634|   -3.296193|    0.012802|    0.003562|
|         513|  4.7389e+01|  0.0000e+00|   -3.774135|   -3.296046|    0.012803|    0.003534|
|         514|  4.7388e+01|  0.0000e+00|   -3.779717|   -3.295832|    0.012802|    0.003504|
|         515|  4.7388e+01|  0.0000e+00|   -3.785300|   -3.295549|    0.012797|    0.003472|
|         516|  4.7387e+01|  0.0000e+00|   -3.790801|   -3.295197|    0.012790|    0.003438|
|         517|  4.7386e+01|  0.0000e+00|   -3.796139|   -3.294776|    0.012780|    0.003403|
|         518|  4.7385e+01|  0.0000e+00|   -3.801233|   -3.294284|    0.012767|    0.003366|
|         519|  4.7384e+01|  0.0000e+00|   -3.806009|   -3.293725|    0.012751|    0.003328|
|         520|  4.7383e+01|  0.0000e+00|   -3.810398|   -3.293098|    0.012733|    0.003289|
|         521|  4.7382e+01|  0.0000e+00|   -3.814344|   -3.292406|    0.012712|    0.003248|
|         522|  4.7382e+01|  0.0000e+00|   -3.817801|   -3.291653|    0.012688|    0.003207|
|         523|  4.7381e+01|  0.0000e+00|   -3.820739|   -3.290842|    0.012662|    0.003165|
|         524|  4.7380e+01|  0.0000e+00|   -3.823143|   -3.289978|    0.012633|    0.003122|
|         525|  4.7379e+01|  0.0000e+00|   -3.825015|   -3.289066|    0.012602|    0.003078|
|         526|  4.7379e+01|  0.0000e+00|   -3.826373|   -3.288112|    0.012569|    0.003034|
|         527|  4.7378e+01|  0.0000e+00|   -3.827247|   -3.287121|    0.012533|    0.002989|
|         528|  4.7377e+01|  0.0000e+00|   -3.827687|   -3.286099|    0.012495|    0.002945|
|         529|  4.7376e+01|  0.0000e+00|   -3.827746|   -3.285051|    0.012455|    0.002900|
|         530|  4.7375e+01|  0.0000e+00|   -3.827490|   -3.283985|    0.012413|    0.002855|
|         531|  4.7374e+01|  0.0000e+00|   -3.826990|   -3.282903|    0.012370|    0.002810|
|         532|  4.7374e+01|  0.0000e+00|   -3.826318|   -3.281813|    0.012324|    0.002766|
|         533|  4.7373e+01|  0.0000e+00|   -3.825550|   -3.280718|    0.012278|    0.002722|
|         534|  4.7372e+01|  0.0000e+00|   -3.824759|   -3.279622|    0.012230|    0.002678|
|         535|  4.7372e+01|  0.0000e+00|   -3.824015|   -3.278530|    0.012180|    0.002635|
|         536|  4.7371e+01|  0.0000e+00|   -3.823385|   -3.277447|    0.012130|    0.002593|
|         537|  4.7370e+01|  0.0000e+00|   -3.822928|   -3.276375|    0.012079|    0.002551|
|         538|  4.7370e+01|  0.0000e+00|   -3.822699|   -3.275318|    0.012027|    0.002510|
|         539|  4.7369e+01|  0.0000e+00|   -3.822747|   -3.274280|    0.011974|    0.002471|
|         540|  4.7369e+01|  0.0000e+00|   -3.823116|   -3.273261|    0.011921|    0.002432|
|         541|  4.7368e+01|  0.0000e+00|   -3.823842|   -3.272264|    0.011868|    0.002394|
|         542|  4.7367e+01|  0.0000e+00|   -3.824956|   -3.271290|    0.011814|    0.002358|
|         543|  4.7367e+01|  0.0000e+00|   -3.826482|   -3.270340|    0.011761|    0.002323|
|         544|  4.7366e+01|  0.0000e+00|   -3.828440|   -3.269413|    0.011707|    0.002289|
|         545|  4.7365e+01|  0.0000e+00|   -3.830842|   -3.268509|    0.011654|    0.002257|
|         546|  4.7364e+01|  0.0000e+00|   -3.833697|   -3.267627|    0.011602|    0.002227|
|         547|  4.7363e+01|  0.0000e+00|   -3.837009|   -3.266766|    0.011550|    0.002198|
|         548|  4.7363e+01|  0.0000e+00|   -3.840779|   -3.265926|    0.011499|    0.002170|
|         549|  4.7362e+01|  0.0000e+00|   -3.845001|   -3.265105|    0.011449|    0.002144|
|         550|  4.7361e+01|  0.0000e+00|   -3.849667|   -3.264300|    0.011399|    0.002120|
|         551|  4.7360e+01|  0.0000e+00|   -3.854762|   -3.263510|    0.011351|    0.002098|
|         552|  4.7359e+01|  0.0000e+00|   -3.860268|   -3.262733|    0.011304|    0.002078|
|         553|  4.7359e+01|  0.0000e+00|   -3.866165|   -3.261968|    0.011259|    0.002059|
|         554|  4.7358e+01|  0.0000e+00|   -3.872428|   -3.261212|    0.011214|    0.002042|
|         555|  4.7357e+01|  0.0000e+00|   -3.879025|   -3.260464|    0.011172|    0.002027|
|         556|  4.7357e+01|  0.0000e+00|   -3.885924|   -3.259722|    0.011130|    0.002014|
|         557|  4.7356e+01|  0.0000e+00|   -3.893088|   -3.258984|    0.011091|    0.002003|
|         558|  4.7355e+01|  0.0000e+00|   -3.900472|   -3.258250|    0.011053|    0.001993|
|         559|  4.7355e+01|  0.0000e+00|   -3.908033|   -3.257516|    0.011016|    0.001986|
|         560|  4.7354e+01|  0.0000e+00|   -3.915722|   -3.256781|    0.010982|    0.001980|
|         561|  4.7353e+01|  0.0000e+00|   -3.923488|   -3.256046|    0.010949|    0.001976|
|         562|  4.7352e+01|  0.0000e+00|   -3.931275|   -3.255308|    0.010918|    0.001974|
|         563|  4.7352e+01|  0.0000e+00|   -3.939029|   -3.254569|    0.010888|    0.001973|
|         564|  4.7351e+01|  0.0000e+00|   -3.946695|   -3.253825|    0.010860|    0.001974|
|         565|  4.7350e+01|  0.0000e+00|   -3.954215|   -3.253076|    0.010834|    0.001977|
|         566|  4.7349e+01|  0.0000e+00|   -3.961534|   -3.252321|    0.010809|    0.001982|
|         567|  4.7348e+01|  0.0000e+00|   -3.968600|   -3.251559|    0.010785|    0.001988|
|         568|  4.7348e+01|  0.0000e+00|   -3.975365|   -3.250791|    0.010763|    0.001995|
|         569|  4.7348e+01|  0.0000e+00|   -3.981787|   -3.250017|    0.010743|    0.002004|
|         570|  4.7347e+01|  0.0000e+00|   -3.987830|   -3.249236|    0.010724|    0.002015|
|         571|  4.7346e+01|  0.0000e+00|   -3.993467|   -3.248450|    0.010705|    0.002027|
|         572|  4.7345e+01|  0.0000e+00|   -3.998684|   -3.247658|    0.010689|    0.002040|
|         573|  4.7344e+01|  0.0000e+00|   -4.003471|   -3.246862|    0.010673|    0.002054|
|         574|  4.7344e+01|  0.0000e+00|   -4.007832|   -3.246064|    0.010658|    0.002069|
|         575|  4.7343e+01|  0.0000e+00|   -4.011777|   -3.245264|    0.010644|    0.002085|
|         576|  4.7342e+01|  0.0000e+00|   -4.015329|   -3.244464|    0.010631|    0.002102|
|         577|  4.7341e+01|  0.0000e+00|   -4.018518|   -3.243666|    0.010619|    0.002120|
|         578|  4.7341e+01|  0.0000e+00|   -4.021382|   -3.242871|    0.010607|    0.002139|
|         579|  4.7340e+01|  0.0000e+00|   -4.023965|   -3.242080|    0.010595|    0.002158|
|         580|  4.7339e+01|  0.0000e+00|   -4.026315|   -3.241296|    0.010584|    0.002178|
|         581|  4.7338e+01|  0.0000e+00|   -4.028483|   -3.240521|    0.010572|    0.002199|
|         582|  4.7338e+01|  0.0000e+00|   -4.030525|   -3.239755|    0.010561|    0.002219|
|         583|  4.7337e+01|  0.0000e+00|   -4.032494|   -3.239002|    0.010549|    0.002240|
|         584|  4.7336e+01|  0.0000e+00|   -4.034444|   -3.238263|    0.010537|    0.002262|
|         585|  4.7336e+01|  0.0000e+00|   -4.036424|   -3.237539|    0.010525|    0.002283|
|         586|  4.7335e+01|  0.0000e+00|   -4.038486|   -3.236833|    0.010512|    0.002304|
|         587|  4.7334e+01|  0.0000e+00|   -4.040669|   -3.236147|    0.010498|    0.002325|
|         588|  4.7334e+01|  0.0000e+00|   -4.043021|   -3.235481|    0.010483|    0.002346|
|         589|  4.7333e+01|  0.0000e+00|   -4.045580|   -3.234837|    0.010468|    0.002366|
|         590|  4.7332e+01|  0.0000e+00|   -4.048373|   -3.234218|    0.010451|    0.002386|
|         591|  4.7332e+01|  0.0000e+00|   -4.051430|   -3.233623|    0.010434|    0.002406|
|         592|  4.7331e+01|  0.0000e+00|   -4.054766|   -3.233056|    0.010415|    0.002425|
|         593|  4.7331e+01|  0.0000e+00|   -4.058405|   -3.232517|    0.010395|    0.002443|
|         594|  4.7330e+01|  0.0000e+00|   -4.062356|   -3.232007|    0.010374|    0.002461|
|         595|  4.7329e+01|  0.0000e+00|   -4.066627|   -3.231527|    0.010351|    0.002478|
|         596|  4.7329e+01|  0.0000e+00|   -4.071216|   -3.231079|    0.010327|    0.002494|
|         597|  4.7328e+01|  0.0000e+00|   -4.076120|   -3.230662|    0.010302|    0.002509|
|         598|  4.7327e+01|  0.0000e+00|   -4.081326|   -3.230278|    0.010275|    0.002523|
|         599|  4.7327e+01|  0.0000e+00|   -4.086817|   -3.229927|    0.010246|    0.002536|
|         600|  4.7326e+01|  0.0000e+00|   -4.092564|   -3.229611|    0.010216|    0.002548|
|         601|  4.7326e+01|  0.0000e+00|   -4.098542|   -3.229328|    0.010185|    0.002559|
|         602|  4.7325e+01|  0.0000e+00|   -4.104716|   -3.229080|    0.010152|    0.002568|
|         603|  4.7324e+01|  0.0000e+00|   -4.111046|   -3.228867|    0.010118|    0.002577|
|         604|  4.7324e+01|  0.0000e+00|   -4.117493|   -3.228688|    0.010082|    0.002584|
|         605|  4.7323e+01|  0.0000e+00|   -4.124011|   -3.228545|    0.010045|    0.002590|
|         606|  4.7323e+01|  0.0000e+00|   -4.130545|   -3.228437|    0.010007|    0.002595|
|         607|  4.7322e+01|  0.0000e+00|   -4.137028|   -3.228364|    0.009968|    0.002599|
|         608|  4.7321e+01|  0.0000e+00|   -4.143407|   -3.228326|    0.009928|    0.002601|
|         609|  4.7321e+01|  0.0000e+00|   -4.149635|   -3.228322|    0.009886|    0.002602|
|         610|  4.7320e+01|  0.0000e+00|   -4.155654|   -3.228353|    0.009844|    0.002602|
|         611|  4.7320e+01|  0.0000e+00|   -4.161407|   -3.228418|    0.009801|    0.002600|
|         612|  4.7319e+01|  0.0000e+00|   -4.166851|   -3.228517|    0.009758|    0.002598|
|         613|  4.7318e+01|  0.0000e+00|   -4.171939|   -3.228650|    0.009714|    0.002594|
|         614|  4.7318e+01|  0.0000e+00|   -4.176636|   -3.228815|    0.009670|    0.002588|
|         615|  4.7317e+01|  0.0000e+00|   -4.180920|   -3.229014|    0.009625|    0.002582|
|         616|  4.7316e+01|  0.0000e+00|   -4.184783|   -3.229244|    0.009581|    0.002575|
|         617|  4.7316e+01|  0.0000e+00|   -4.188224|   -3.229507|    0.009536|    0.002566|
|         618|  4.7315e+01|  0.0000e+00|   -4.191250|   -3.229800|    0.009492|    0.002557|
|         619|  4.7315e+01|  0.0000e+00|   -4.193877|   -3.230123|    0.009449|    0.002546|
|         620|  4.7314e+01|  0.0000e+00|   -4.196133|   -3.230475|    0.009406|    0.002535|
|         621|  4.7314e+01|  0.0000e+00|   -4.198057|   -3.230856|    0.009365|    0.002523|
|         622|  4.7313e+01|  0.0000e+00|   -4.199696|   -3.231266|    0.009324|    0.002510|
|         623|  4.7312e+01|  0.0000e+00|   -4.201102|   -3.231702|    0.009285|    0.002496|
|         624|  4.7312e+01|  0.0000e+00|   -4.202323|   -3.232164|    0.009247|    0.002481|
|         625|  4.7311e+01|  0.0000e+00|   -4.203410|   -3.232651|    0.009211|    0.002466|
|         626|  4.7310e+01|  0.0000e+00|   -4.204412|   -3.233161|    0.009177|    0.002450|
|         627|  4.7310e+01|  0.0000e+00|   -4.205379|   -3.233694|    0.009145|    0.002434|
|         628|  4.7309e+01|  0.0000e+00|   -4.206359|   -3.234249|    0.009115|    0.002417|
|         629|  4.7309e+01|  0.0000e+00|   -4.207391|   -3.234824|    0.009087|    0.002400|
|         630|  4.7308e+01|  0.0000e+00|   -4.208514|   -3.235418|    0.009062|    0.002383|
|         631|  4.7308e+01|  0.0000e+00|   -4.209766|   -3.236030|    0.009039|    0.002365|
|         632|  4.7307e+01|  0.0000e+00|   -4.211167|   -3.236658|    0.009019|    0.002348|
|         633|  4.7307e+01|  0.0000e+00|   -4.212736|   -3.237300|    0.009002|    0.002330|
|         634|  4.7307e+01|  0.0000e+00|   -4.214491|   -3.237956|    0.008989|    0.002312|
|         635|  4.7306e+01|  0.0000e+00|   -4.216443|   -3.238622|    0.008978|    0.002294|
|         636|  4.7306e+01|  0.0000e+00|   -4.218592|   -3.239298|    0.008971|    0.002276|
|         637|  4.7306e+01|  0.0000e+00|   -4.220934|   -3.239982|    0.008968|    0.002258|
|         638|  4.7305e+01|  0.0000e+00|   -4.223465|   -3.240671|    0.008967|    0.002241|
|         639|  4.7305e+01|  0.0000e+00|   -4.226174|   -3.241364|    0.008971|    0.002223|
|         640|  4.7305e+01|  0.0000e+00|   -4.229048|   -3.242058|    0.008978|    0.002206|
|         641|  4.7305e+01|  0.0000e+00|   -4.232070|   -3.242752|    0.008989|    0.002189|
|         642|  4.7304e+01|  0.0000e+00|   -4.235221|   -3.243443|    0.009003|    0.002173|
|         643|  4.7304e+01|  0.0000e+00|   -4.238479|   -3.244129|    0.009021|    0.002157|
|         644|  4.7304e+01|  0.0000e+00|   -4.241818|   -3.244809|    0.009043|    0.002142|
|         645|  4.7304e+01|  0.0000e+00|   -4.245212|   -3.245480|    0.009069|    0.002127|
|         646|  4.7304e+01|  0.0000e+00|   -4.248637|   -3.246141|    0.009099|    0.002113|
|         647|  4.7304e+01|  0.0000e+00|   -4.252075|   -3.246788|    0.009132|    0.002099|
|         648|  4.7304e+01|  0.0000e+00|   -4.255498|   -3.247421|    0.009170|    0.002086|
|         649|  4.7304e+01|  0.0000e+00|   -4.258893|   -3.248037|    0.009211|    0.002074|
|         650|  4.7304e+01|  0.0000e+00|   -4.262246|   -3.248635|    0.009256|    0.002062|
|         651|  4.7304e+01|  0.0000e+00|   -4.265541|   -3.249213|    0.009304|    0.002051|
|         652|  4.7304e+01|  0.0000e+00|   -4.268770|   -3.249770|    0.009357|    0.002040|
|         653|  4.7304e+01|  0.0000e+00|   -4.271927|   -3.250304|    0.009412|    0.002031|
|         654|  4.7304e+01|  0.0000e+00|   -4.275006|   -3.250815|    0.009472|    0.002022|
|         655|  4.7303e+01|  0.0000e+00|   -4.278007|   -3.251300|    0.009534|    0.002014|
|         656|  4.7303e+01|  0.0000e+00|   -4.280937|   -3.251759|    0.009600|    0.002006|
|         657|  4.7303e+01|  0.0000e+00|   -4.283806|   -3.252191|    0.009670|    0.002000|
|         658|  4.7303e+01|  0.0000e+00|   -4.286620|   -3.252593|    0.009742|    0.001994|
|         659|  4.7303e+01|  0.0000e+00|   -4.289390|   -3.252967|    0.009817|    0.001989|
|         660|  4.7303e+01|  0.0000e+00|   -4.292133|   -3.253311|    0.009895|    0.001985|
|         661|  4.7303e+01|  0.0000e+00|   -4.294858|   -3.253626|    0.009976|    0.001982|
|         662|  4.7303e+01|  0.0000e+00|   -4.297576|   -3.253912|    0.010059|    0.001979|
|         663|  4.7303e+01|  0.0000e+00|   -4.300304|   -3.254169|    0.010145|    0.001977|
|         664|  4.7303e+01|  0.0000e+00|   -4.303056|   -3.254396|    0.010233|    0.001976|
|         665|  4.7303e+01|  0.0000e+00|   -4.305839|   -3.254593|    0.010324|    0.001976|
|         666|  4.7303e+01|  0.0000e+00|   -4.308656|   -3.254761|    0.010416|    0.001977|
|         667|  4.7303e+01|  0.0000e+00|   -4.311514|   -3.254901|    0.010510|    0.001978|
|         668|  4.7303e+01|  0.0000e+00|   -4.314418|   -3.255011|    0.010606|    0.001980|
|         669|  4.7302e+01|  0.0000e+00|   -4.317366|   -3.255094|    0.010704|    0.001983|
|         670|  4.7302e+01|  0.0000e+00|   -4.320351|   -3.255149|    0.010803|    0.001986|
|         671|  4.7302e+01|  0.0000e+00|   -4.323364|   -3.255178|    0.010903|    0.001990|
|         672|  4.7302e+01|  0.0000e+00|   -4.326389|   -3.255182|    0.011004|    0.001995|
|         673|  4.7302e+01|  0.0000e+00|   -4.329406|   -3.255161|    0.011106|    0.002000|
|         674|  4.7302e+01|  0.0000e+00|   -4.332402|   -3.255117|    0.011209|    0.002006|
|         675|  4.7302e+01|  0.0000e+00|   -4.335356|   -3.255050|    0.011313|    0.002013|
|         676|  4.7302e+01|  0.0000e+00|   -4.338245|   -3.254963|    0.011417|    0.002020|
|         677|  4.7302e+01|  0.0000e+00|   -4.341041|   -3.254855|    0.011521|    0.002028|
|         678|  4.7302e+01|  0.0000e+00|   -4.343708|   -3.254729|    0.011625|    0.002036|
|         679|  4.7302e+01|  0.0000e+00|   -4.346220|   -3.254585|    0.011729|    0.002045|
|         680|  4.7302e+01|  0.0000e+00|   -4.348545|   -3.254426|    0.011833|    0.002054|
|         681|  4.7302e+01|  0.0000e+00|   -4.350653|   -3.254252|    0.011937|    0.002064|
|         682|  4.7302e+01|  0.0000e+00|   -4.352512|   -3.254065|    0.012040|    0.002074|
|         683|  4.7302e+01|  0.0000e+00|   -4.354092|   -3.253866|    0.012142|    0.002084|
|         684|  4.7302e+01|  0.0000e+00|   -4.355366|   -3.253657|    0.012243|    0.002095|
|         685|  4.7302e+01|  0.0000e+00|   -4.356316|   -3.253438|    0.012344|    0.002107|
|         686|  4.7302e+01|  0.0000e+00|   -4.356935|   -3.253211|    0.012443|    0.002118|
|         687|  4.7302e+01|  0.0000e+00|   -4.357204|   -3.252977|    0.012541|    0.002130|
|         688|  4.7302e+01|  0.0000e+00|   -4.357113|   -3.252737|    0.012637|    0.002142|
|         689|  4.7302e+01|  0.0000e+00|   -4.356664|   -3.252493|    0.012732|    0.002155|
|         690|  4.7302e+01|  0.0000e+00|   -4.355865|   -3.252245|    0.012825|    0.002167|
|         691|  4.7302e+01|  0.0000e+00|   -4.354728|   -3.251996|    0.012916|    0.002180|
|         692|  4.7302e+01|  0.0000e+00|   -4.353271|   -3.251745|    0.013005|    0.002193|
|         693|  4.7303e+01|  0.0000e+00|   -4.351521|   -3.251495|    0.013091|    0.002206|
|         694|  4.7303e+01|  0.0000e+00|   -4.349509|   -3.251246|    0.013176|    0.002219|
|         695|  4.7304e+01|  0.0000e+00|   -4.347273|   -3.250999|    0.013258|    0.002233|
|         696|  4.7304e+01|  0.0000e+00|   -4.344849|   -3.250754|    0.013337|    0.002246|
|         697|  4.7304e+01|  0.0000e+00|   -4.342267|   -3.250514|    0.013414|    0.002259|
|         698|  4.7305e+01|  0.0000e+00|   -4.339573|   -3.250278|    0.013488|    0.002273|
|         699|  4.7306e+01|  0.0000e+00|   -4.336813|   -3.250048|    0.013559|    0.002286|
|         700|  4.7306e+01|  0.0000e+00|   -4.334035|   -3.249824|    0.013628|    0.002299|
|         701|  4.7306e+01|  0.0000e+00|   -4.331283|   -3.249607|    0.013693|    0.002313|
|         702|  4.7306e+01|  0.0000e+00|   -4.328589|   -3.249398|    0.013755|    0.002326|
|         703|  4.7306e+01|  0.0000e+00|   -4.325984|   -3.249198|    0.013813|    0.002339|
|         704|  4.7306e+01|  0.0000e+00|   -4.323505|   -3.249006|    0.013869|    0.002352|
|         705|  4.7307e+01|  0.0000e+00|   -4.321188|   -3.248825|    0.013920|    0.002364|
|         706|  4.7307e+01|  0.0000e+00|   -4.319057|   -3.248655|    0.013969|    0.002377|
|         707|  4.7307e+01|  0.0000e+00|   -4.317140|   -3.248497|    0.014014|    0.002389|
|         708|  4.7307e+01|  0.0000e+00|   -4.315447|   -3.248350|    0.014055|    0.002401|
|         709|  4.7307e+01|  0.0000e+00|   -4.313992|   -3.248216|    0.014093|    0.002413|
|         710|  4.7308e+01|  0.0000e+00|   -4.312783|   -3.248095|    0.014127|    0.002425|
|         711|  4.7308e+01|  0.0000e+00|   -4.311826|   -3.247986|    0.014157|    0.002436|
|         712|  4.7308e+01|  0.0000e+00|   -4.311126|   -3.247891|    0.014183|    0.002447|
|         713|  4.7308e+01|  0.0000e+00|   -4.310681|   -3.247809|    0.014206|    0.002457|
|         714|  4.7308e+01|  0.0000e+00|   -4.310474|   -3.247739|    0.014225|    0.002468|
|         715|  4.7308e+01|  0.0000e+00|   -4.310497|   -3.247683|    0.014240|    0.002477|
|         716|  4.7309e+01|  0.0000e+00|   -4.310737|   -3.247639|    0.014251|    0.002487|
|         717|  4.7309e+01|  0.0000e+00|   -4.311164|   -3.247608|    0.014259|    0.002496|
|         718|  4.7309e+01|  0.0000e+00|   -4.311753|   -3.247590|    0.014263|    0.002504|
|         719|  4.7309e+01|  0.0000e+00|   -4.312478|   -3.247583|    0.014263|    0.002513|
|         720|  4.7309e+01|  0.0000e+00|   -4.313299|   -3.247588|    0.014259|    0.002520|
|         721|  4.7309e+01|  0.0000e+00|   -4.314188|   -3.247604|    0.014251|    0.002528|
|         722|  4.7310e+01|  0.0000e+00|   -4.315107|   -3.247631|    0.014240|    0.002534|
|         723|  4.7310e+01|  0.0000e+00|   -4.316018|   -3.247669|    0.014225|    0.002541|
|         724|  4.7311e+01|  0.0000e+00|   -4.316882|   -3.247717|    0.014206|    0.002546|
|         725|  4.7311e+01|  0.0000e+00|   -4.317659|   -3.247775|    0.014184|    0.002552|
[...]
|         795|  4.7343e+01|  0.0000e+00|   -4.275344|   -3.256101|    0.009383|    0.001820|
|         796|  4.7343e+01|  0.0000e+00|   -4.274831|   -3.256227|    0.009351|    0.001810|
|         797|  4.7343e+01|  0.0000e+00|   -4.274698|   -3.256356|    0.009322|    0.001800|
|         798|  4.7343e+01|  0.0000e+00|   -4.274942|   -3.256489|    0.009296|    0.001791|
|         799|  4.7343e+01|  0.0000e+00|   -4.275557|   -3.256627|    0.009274|    0.001782|
|         800|  4.7343e+01|  0.0000e+00|   -4.276532|   -3.256769|    0.009254|    0.001775|
|         801|  4.7344e+01|  0.0000e+00|   -4.277852|   -3.256915|    0.009238|    0.001768|
|         802|  4.7344e+01|  0.0000e+00|   -4.279499|   -3.257066|    0.009225|    0.001761|
|         803|  4.7345e+01|  0.0000e+00|   -4.281449|   -3.257221|    0.009215|    0.001756|
|         804|  4.7345e+01|  0.0000e+00|   -4.283676|   -3.257380|    0.009209|    0.001751|
|         805|  4.7345e+01|  0.0000e+00|   -4.286149|   -3.257544|    0.009206|    0.001747|
|         806|  4.7345e+01|  0.0000e+00|   -4.288833|   -3.257712|    0.009206|    0.001743|
|         807|  4.7345e+01|  0.0000e+00|   -4.291689|   -3.257885|    0.009209|    0.001740|
|         808|  4.7345e+01|  0.0000e+00|   -4.294675|   -3.258062|    0.009215|    0.001738|
|         809|  4.7345e+01|  0.0000e+00|   -4.297746|   -3.258243|    0.009225|    0.001737|
|         810|  4.7345e+01|  0.0000e+00|   -4.300855|   -3.258429|    0.009238|    0.001736|
|         811|  4.7345e+01|  0.0000e+00|   -4.303953|   -3.258619|    0.009253|    0.001736|
|         812|  4.7345e+01|  0.0000e+00|   -4.306993|   -3.258814|    0.009273|    0.001737|
|         813|  4.7345e+01|  0.0000e+00|   -4.309925|   -3.259014|    0.009295|    0.001739|
|         814|  4.7346e+01|  0.0000e+00|   -4.312699|   -3.259218|    0.009320|    0.001741|
|         815|  4.7346e+01|  0.0000e+00|   -4.315272|   -3.259427|    0.009348|    0.001743|
|         816|  4.7347e+01|  0.0000e+00|   -4.317599|   -3.259640|    0.009379|    0.001747|
|         817|  4.7347e+01|  0.0000e+00|   -4.319644|   -3.259859|    0.009413|    0.001751|
|         818|  4.7348e+01|  0.0000e+00|   -4.321371|   -3.260082|    0.009449|    0.001755|
|         819|  4.7348e+01|  0.0000e+00|   -4.322753|   -3.260311|    0.009489|    0.001760|
|         820|  4.7349e+01|  0.0000e+00|   -4.323774|   -3.260545|    0.009531|    0.001766|
|         821|  4.7349e+01|  0.0000e+00|   -4.324422|   -3.260784|    0.009576|    0.001772|
|         822|  4.7350e+01|  0.0000e+00|   -4.324700|   -3.261029|    0.009623|    0.001779|
|         823|  4.7350e+01|  0.0000e+00|   -4.324612|   -3.261281|    0.009672|    0.001786|
|         824|  4.7351e+01|  0.0000e+00|   -4.324167|   -3.261539|    0.009724|    0.001794|
|         825|  4.7351e+01|  0.0000e+00|   -4.323388|   -3.261805|    0.009778|    0.001802|
|         826|  4.7352e+01|  0.0000e+00|   -4.322298|   -3.262078|    0.009834|    0.001811|
|         827|  4.7352e+01|  0.0000e+00|   -4.320927|   -3.262359|    0.009893|    0.001820|
|         828|  4.7353e+01|  0.0000e+00|   -4.319313|   -3.262649|    0.009953|    0.001829|
|         829|  4.7353e+01|  0.0000e+00|   -4.317492|   -3.262948|    0.010015|    0.001839|
|         830|  4.7353e+01|  0.0000e+00|   -4.315506|   -3.263256|    0.010079|    0.001849|
|         831|  4.7353e+01|  0.0000e+00|   -4.313398|   -3.263573|    0.010144|    0.001860|
|         832|  4.7353e+01|  0.0000e+00|   -4.311200|   -3.263901|    0.010211|    0.001870|
|         833|  4.7353e+01|  0.0000e+00|   -4.308958|   -3.264240|    0.010280|    0.001881|
|         834|  4.7353e+01|  0.0000e+00|   -4.306710|   -3.264590|    0.010350|    0.001892|
|         835|  4.7353e+01|  0.0000e+00|   -4.304485|   -3.264952|    0.010420|    0.001903|
|         836|  4.7353e+01|  0.0000e+00|   -4.302313|   -3.265326|    0.010492|    0.001915|
|         837|  4.7353e+01|  0.0000e+00|   -4.300222|   -3.265713|    0.010565|    0.001926|
|         838|  4.7353e+01|  0.0000e+00|   -4.298236|   -3.266113|    0.010639|    0.001938|
|         839|  4.7353e+01|  0.0000e+00|   -4.296377|   -3.266527|    0.010713|    0.001950|
|         840|  4.7353e+01|  0.0000e+00|   -4.294662|   -3.266955|    0.010788|    0.001961|
|         841|  4.7354e+01|  0.0000e+00|   -4.293102|   -3.267397|    0.010864|    0.001973|
|         842|  4.7354e+01|  0.0000e+00|   -4.291710|   -3.267855|    0.010939|    0.001985|
|         843|  4.7355e+01|  0.0000e+00|   -4.290489|   -3.268328|    0.011015|    0.001996|
|         844|  4.7355e+01|  0.0000e+00|   -4.289443|   -3.268816|    0.011091|    0.002008|
|         845|  4.7355e+01|  0.0000e+00|   -4.288566|   -3.269321|    0.011168|    0.002020|
|         846|  4.7355e+01|  0.0000e+00|   -4.287856|   -3.269842|    0.011244|    0.002031|
|         847|  4.7356e+01|  0.0000e+00|   -4.287312|   -3.270379|    0.011320|    0.002043|
|         848|  4.7356e+01|  0.0000e+00|   -4.286927|   -3.270934|    0.011395|    0.002054|
|         849|  4.7357e+01|  0.0000e+00|   -4.286686|   -3.271505|    0.011471|    0.002065|
|         850|  4.7357e+01|  0.0000e+00|   -4.286574|   -3.272093|    0.011546|    0.002076|
|         851|  4.7358e+01|  0.0000e+00|   -4.286578|   -3.272698|    0.011620|    0.002087|
|         852|  4.7358e+01|  0.0000e+00|   -4.286685|   -3.273321|    0.011694|    0.002097|
|         853|  4.7359e+01|  0.0000e+00|   -4.286875|   -3.273962|    0.011767|    0.002108|
|         854|  4.7359e+01|  0.0000e+00|   -4.287127|   -3.274621|    0.011839|    0.002118|
|         855|  4.7360e+01|  0.0000e+00|   -4.287420|   -3.275298|    0.011910|    0.002128|
|         856|  4.7360e+01|  0.0000e+00|   -4.287746|   -3.275992|    0.011981|    0.002138|
|         857|  4.7361e+01|  0.0000e+00|   -4.288086|   -3.276704|    0.012050|    0.002147|
|         858|  4.7362e+01|  0.0000e+00|   -4.288418|   -3.277434|    0.012118|    0.002156|
|         859|  4.7362e+01|  0.0000e+00|   -4.288726|   -3.278182|    0.012186|    0.002165|
|         860|  4.7363e+01|  0.0000e+00|   -4.288993|   -3.278948|    0.012252|    0.002174|
|         861|  4.7363e+01|  0.0000e+00|   -4.289205|   -3.279730|    0.012316|    0.002182|
|         862|  4.7363e+01|  0.0000e+00|   -4.289353|   -3.280530|    0.012380|    0.002190|
|         863|  4.7363e+01|  0.0000e+00|   -4.289430|   -3.281347|    0.012442|    0.002198|
|         864|  4.7364e+01|  0.0000e+00|   -4.289426|   -3.282180|    0.012503|    0.002205|
|         865|  4.7364e+01|  0.0000e+00|   -4.289339|   -3.283029|    0.012562|    0.002212|
|         866|  4.7364e+01|  0.0000e+00|   -4.289161|   -3.283894|    0.012620|    0.002219|
|         867|  4.7364e+01|  0.0000e+00|   -4.288892|   -3.284775|    0.012677|    0.002225|
|         868|  4.7364e+01|  0.0000e+00|   -4.288532|   -3.285670|    0.012732|    0.002231|
|         869|  4.7364e+01|  0.0000e+00|   -4.288085|   -3.286581|    0.012785|    0.002237|
|         870|  4.7364e+01|  0.0000e+00|   -4.287559|   -3.287505|    0.012837|    0.002242|
|         871|  4.7364e+01|  0.0000e+00|   -4.286960|   -3.288444|    0.012887|    0.002247|
|         872|  4.7365e+01|  0.0000e+00|   -4.286295|   -3.289395|    0.012936|    0.002252|
|         873|  4.7365e+01|  0.0000e+00|   -4.285576|   -3.290359|    0.012983|    0.002256|
|         874|  4.7365e+01|  0.0000e+00|   -4.284808|   -3.291336|    0.013028|    0.002260|
|         875|  4.7365e+01|  0.0000e+00|   -4.284002|   -3.292324|    0.013072|    0.002264|
|         876|  4.7365e+01|  0.0000e+00|   -4.283168|   -3.293323|    0.013114|    0.002267|
|         877|  4.7365e+01|  0.0000e+00|   -4.282315|   -3.294332|    0.013154|    0.002270|
|         878|  4.7365e+01|  0.0000e+00|   -4.281457|   -3.295351|    0.013193|    0.002272|
|         879|  4.7365e+01|  0.0000e+00|   -4.280597|   -3.296379|    0.013230|    0.002274|
|         880|  4.7365e+01|  0.0000e+00|   -4.279744|   -3.297414|    0.013266|    0.002276|
|         881|  4.7365e+01|  0.0000e+00|   -4.278905|   -3.298458|    0.013300|    0.002278|
|         882|  4.7365e+01|  0.0000e+00|   -4.278090|   -3.299508|    0.013332|    0.002279|
|         883|  4.7365e+01|  0.0000e+00|   -4.277304|   -3.300564|    0.013363|    0.002280|
|         884|  4.7365e+01|  0.0000e+00|   -4.276552|   -3.301626|    0.013392|    0.002280|
|         885|  4.7365e+01|  0.0000e+00|   -4.275841|   -3.302691|    0.013419|    0.002280|
|         886|  4.7365e+01|  0.0000e+00|   -4.275174|   -3.303761|    0.013444|    0.002280|
|         887|  4.7365e+01|  0.0000e+00|   -4.274554|   -3.304833|    0.013468|    0.002279|
|         888|  4.7365e+01|  0.0000e+00|   -4.273990|   -3.305908|    0.013490|    0.002278|
|         889|  4.7365e+01|  0.0000e+00|   -4.273483|   -3.306983|    0.013511|    0.002277|
|         890|  4.7365e+01|  0.0000e+00|   -4.273037|   -3.308059|    0.013529|    0.002275|
|         891|  4.7365e+01|  0.0000e+00|   -4.272656|   -3.309135|    0.013546|    0.002273|
|         892|  4.7365e+01|  0.0000e+00|   -4.272345|   -3.310209|    0.013562|    0.002271|
|         893|  4.7365e+01|  0.0000e+00|   -4.272109|   -3.311281|    0.013575|    0.002268|
|         894|  4.7365e+01|  0.0000e+00|   -4.271954|   -3.312351|    0.013587|    0.002265|
|         895|  4.7365e+01|  0.0000e+00|   -4.271889|   -3.313416|    0.013597|    0.002261|
|         896|  4.7364e+01|  0.0000e+00|   -4.271914|   -3.314477|    0.013605|    0.002258|
|         897|  4.7364e+01|  0.0000e+00|   -4.272038|   -3.315533|    0.013611|    0.002253|
|         898|  4.7364e+01|  0.0000e+00|   -4.272269|   -3.316584|    0.013616|    0.002249|
|         899|  4.7364e+01|  0.0000e+00|   -4.272618|   -3.317628|    0.013618|    0.002244|
|         900|  4.7364e+01|  0.0000e+00|   -4.273095|   -3.318664|    0.013619|    0.002239|
|         901|  4.7364e+01|  0.0000e+00|   -4.273709|   -3.319693|    0.013618|    0.002233|
|         902|  4.7364e+01|  0.0000e+00|   -4.274468|   -3.320713|    0.013615|    0.002227|
|         903|  4.7364e+01|  0.0000e+00|   -4.275384|   -3.321723|    0.013610|    0.002221|
|         904|  4.7364e+01|  0.0000e+00|   -4.276463|   -3.322722|    0.013604|    0.002214|
|         905|  4.7364e+01|  0.0000e+00|   -4.277718|   -3.323710|    0.013595|    0.002207|
|         906|  4.7364e+01|  0.0000e+00|   -4.279159|   -3.324686|    0.013585|    0.002200|
|         907|  4.7364e+01|  0.0000e+00|   -4.280801|   -3.325648|    0.013572|    0.002192|
|         908|  4.7364e+01|  0.0000e+00|   -4.282652|   -3.326597|    0.013558|    0.002184|
|         909|  4.7364e+01|  0.0000e+00|   -4.284721|   -3.327530|    0.013542|    0.002175|
|         910|  4.7364e+01|  0.0000e+00|   -4.287017|   -3.328449|    0.013524|    0.002167|
|         911|  4.7364e+01|  0.0000e+00|   -4.289545|   -3.329352|    0.013504|    0.002158|
|         912|  4.7364e+01|  0.0000e+00|   -4.292313|   -3.330238|    0.013482|    0.002148|
|         913|  4.7364e+01|  0.0000e+00|   -4.295325|   -3.331106|    0.013459|    0.002138|
|         914|  4.7364e+01|  0.0000e+00|   -4.298586|   -3.331957|    0.013433|    0.002128|
|         915|  4.7364e+01|  0.0000e+00|   -4.302099|   -3.332789|    0.013406|    0.002118|
|         916|  4.7364e+01|  0.0000e+00|   -4.305864|   -3.333602|    0.013376|    0.002107|
|         917|  4.7364e+01|  0.0000e+00|   -4.309875|   -3.334395|    0.013345|    0.002096|
|         918|  4.7364e+01|  0.0000e+00|   -4.314128|   -3.335167|    0.013312|    0.002085|
|         919|  4.7363e+01|  0.0000e+00|   -4.318616|   -3.335918|    0.013278|    0.002074|
|         920|  4.7363e+01|  0.0000e+00|   -4.323330|   -3.336649|    0.013241|    0.002062|
|         921|  4.7363e+01|  0.0000e+00|   -4.328258|   -3.337358|    0.013203|    0.002050|
|         922|  4.7363e+01|  0.0000e+00|   -4.333382|   -3.338044|    0.013164|    0.002038|
|         923|  4.7363e+01|  0.0000e+00|   -4.338685|   -3.338709|    0.013122|    0.002026|
|         924|  4.7363e+01|  0.0000e+00|   -4.344146|   -3.339351|    0.013079|    0.002013|
|         925|  4.7363e+01|  0.0000e+00|   -4.349741|   -3.339970|    0.013034|    0.002000|
|         926|  4.7363e+01|  0.0000e+00|   -4.355442|   -3.340567|    0.012988|    0.001987|
|         927|  4.7363e+01|  0.0000e+00|   -4.361215|   -3.341141|    0.012941|    0.001974|
|         928|  4.7363e+01|  0.0000e+00|   -4.367032|   -3.341692|    0.012891|    0.001961|
|         929|  4.7363e+01|  0.0000e+00|   -4.372854|   -3.342220|    0.012841|    0.001948|
|         930|  4.7363e+01|  0.0000e+00|   -4.378645|   -3.342725|    0.012789|    0.001935|
|         931|  4.7363e+01|  0.0000e+00|   -4.384368|   -3.343208|    0.012736|    0.001921|
|         932|  4.7363e+01|  0.0000e+00|   -4.389985|   -3.343670|    0.012682|    0.001908|
|         933|  4.7363e+01|  0.0000e+00|   -4.395461|   -3.344109|    0.012627|    0.001894|
|         934|  4.7363e+01|  0.0000e+00|   -4.400758|   -3.344527|    0.012571|    0.001881|
|         935|  4.7363e+01|  0.0000e+00|   -4.405841|   -3.344924|    0.012514|    0.001868|
|         936|  4.7363e+01|  0.0000e+00|   -4.410681|   -3.345301|    0.012457|    0.001854|
|         937|  4.7363e+01|  0.0000e+00|   -4.415255|   -3.345658|    0.012398|    0.001841|
|         938|  4.7363e+01|  0.0000e+00|   -4.419541|   -3.345997|    0.012340|    0.001828|
|         939|  4.7363e+01|  0.0000e+00|   -4.423527|   -3.346318|    0.012280|    0.001815|
|         940|  4.7363e+01|  0.0000e+00|   -4.427207|   -3.346622|    0.012220|    0.001803|
|         941|  4.7363e+01|  0.0000e+00|   -4.430583|   -3.346910|    0.012160|    0.001790|
|         942|  4.7363e+01|  0.0000e+00|   -4.433662|   -3.347183|    0.012100|    0.001778|
|         943|  4.7363e+01|  0.0000e+00|   -4.436465|   -3.347442|    0.012040|    0.001766|
|         944|  4.7363e+01|  0.0000e+00|   -4.439021|   -3.347689|    0.011979|    0.001754|
|         945|  4.7363e+01|  0.0000e+00|   -4.441359|   -3.347923|    0.011919|    0.001743|
|         946|  4.7363e+01|  0.0000e+00|   -4.443510|   -3.348146|    0.011859|    0.001731|
|         947|  4.7363e+01|  0.0000e+00|   -4.445510|   -3.348360|    0.011799|    0.001720|
|         948|  4.7363e+01|  0.0000e+00|   -4.447410|   -3.348565|    0.011739|    0.001710|
|         949|  4.7362e+01|  0.0000e+00|   -4.449260|   -3.348763|    0.011680|    0.001700|
|         950|  4.7362e+01|  0.0000e+00|   -4.451108|   -3.348954|    0.011621|    0.001690|
|         951|  4.7362e+01|  0.0000e+00|   -4.453004|   -3.349140|    0.011563|    0.001680|
|         952|  4.7362e+01|  0.0000e+00|   -4.455000|   -3.349322|    0.011506|    0.001671|
|         953|  4.7362e+01|  0.0000e+00|   -4.457142|   -3.349502|    0.011449|    0.001663|
|         954|  4.7362e+01|  0.0000e+00|   -4.459477|   -3.349679|    0.011394|    0.001655|
|         955|  4.7362e+01|  0.0000e+00|   -4.462048|   -3.349855|    0.011339|    0.001647|
|         956|  4.7362e+01|  0.0000e+00|   -4.464902|   -3.350032|    0.011285|    0.001640|
|         957|  4.7362e+01|  0.0000e+00|   -4.468074|   -3.350210|    0.011233|    0.001633|
|         958|  4.7362e+01|  0.0000e+00|   -4.471602|   -3.350390|    0.011182|    0.001627|
|         959|  4.7362e+01|  0.0000e+00|   -4.475525|   -3.350574|    0.011132|    0.001621|
|         960|  4.7362e+01|  0.0000e+00|   -4.479870|   -3.350762|    0.011083|    0.001616|
|         961|  4.7362e+01|  0.0000e+00|   -4.484660|   -3.350955|    0.011037|    0.001611|
|         962|  4.7362e+01|  0.0000e+00|   -4.489920|   -3.351154|    0.010991|    0.001607|
|         963|  4.7362e+01|  0.0000e+00|   -4.495668|   -3.351361|    0.010948|    0.001604|
|         964|  4.7362e+01|  0.0000e+00|   -4.501926|   -3.351575|    0.010906|    0.001601|
|         965|  4.7362e+01|  0.0000e+00|   -4.508699|   -3.351797|    0.010866|    0.001598|
|         966|  4.7362e+01|  0.0000e+00|   -4.515998|   -3.352029|    0.010828|    0.001596|
|         967|  4.7361e+01|  0.0000e+00|   -4.523824|   -3.352269|    0.010791|    0.001595|
|         968|  4.7362e+01|  0.0000e+00|   -4.532174|   -3.352520|    0.010757|    0.001594|
|         969|  4.7361e+01|  0.0000e+00|   -4.541042|   -3.352781|    0.010725|    0.001594|
|         970|  4.7361e+01|  0.0000e+00|   -4.550417|   -3.353054|    0.010694|    0.001594|
|         971|  4.7361e+01|  0.0000e+00|   -4.560280|   -3.353339|    0.010666|    0.001595|
|         972|  4.7361e+01|  0.0000e+00|   -4.570605|   -3.353636|    0.010639|    0.001596|
|         973|  4.7361e+01|  0.0000e+00|   -4.581363|   -3.353947|    0.010615|    0.001598|
|         974|  4.7362e+01|  0.0000e+00|   -4.592523|   -3.354270|    0.010592|    0.001601|
|         975|  4.7362e+01|  0.0000e+00|   -4.604035|   -3.354608|    0.010572|    0.001603|
|         976|  4.7362e+01|  0.0000e+00|   -4.615849|   -3.354960|    0.010554|    0.001607|
|         977|  4.7362e+01|  0.0000e+00|   -4.627903|   -3.355326|    0.010538|    0.001611|
|         978|  4.7362e+01|  0.0000e+00|   -4.640118|   -3.355707|    0.010524|    0.001615|
|         979|  4.7362e+01|  0.0000e+00|   -4.652414|   -3.356103|    0.010512|    0.001620|
|         980|  4.7362e+01|  0.0000e+00|   -4.664704|   -3.356514|    0.010502|    0.001625|
|         981|  4.7362e+01|  0.0000e+00|   -4.676895|   -3.356940|    0.010494|    0.001630|
|         982|  4.7362e+01|  0.0000e+00|   -4.688903|   -3.357382|    0.010488|    0.001636|
|         983|  4.7362e+01|  0.0000e+00|   -4.700618|   -3.357839|    0.010484|    0.001642|
|         984|  4.7362e+01|  0.0000e+00|   -4.711949|   -3.358312|    0.010481|    0.001649|
|         985|  4.7362e+01|  0.0000e+00|   -4.722795|   -3.358803|    0.010481|    0.001656|
|         986|  4.7362e+01|  0.0000e+00|   -4.733073|   -3.359311|    0.010483|    0.001663|
|         987|  4.7362e+01|  0.0000e+00|   -4.742704|   -3.359836|    0.010486|    0.001671|
|         988|  4.7362e+01|  0.0000e+00|   -4.751631|   -3.360380|    0.010491|    0.001679|
|         989|  4.7362e+01|  0.0000e+00|   -4.759817|   -3.360943|    0.010498|    0.001687|
|         990|  4.7362e+01|  0.0000e+00|   -4.767244|   -3.361523|    0.010506|    0.001695|
|         991|  4.7362e+01|  0.0000e+00|   -4.773920|   -3.362121|    0.010516|    0.001704|
|         992|  4.7362e+01|  0.0000e+00|   -4.779877|   -3.362737|    0.010527|    0.001712|
|         993|  4.7362e+01|  0.0000e+00|   -4.785142|   -3.363370|    0.010540|    0.001721|
|         994|  4.7362e+01|  0.0000e+00|   -4.789788|   -3.364021|    0.010554|    0.001730|
|         995|  4.7361e+01|  0.0000e+00|   -4.793898|   -3.364690|    0.010570|    0.001740|
|         996|  4.7361e+01|  0.0000e+00|   -4.797564|   -3.365376|    0.010587|    0.001749|
|         997|  4.7361e+01|  0.0000e+00|   -4.800876|   -3.366079|    0.010605|    0.001758|
|         998|  4.7361e+01|  0.0000e+00|   -4.803943|   -3.366801|    0.010624|    0.001768|
|         999|  4.7361e+01|  0.0000e+00|   -4.806847|   -3.367540|    0.010644|    0.001777|
|        1000|  4.7361e+01|  0.0000e+00|   -4.809661|   -3.368297|    0.010666|    0.001787|

|        1001|  4.7374e+01|  0.0000e+00|   -4.812452|   -3.369071|    0.010688|    0.001797|
|        1002|  4.7374e+01|  0.0000e+00|   -4.815328|   -3.369863|    0.010711|    0.001807|
|        1003|  4.7374e+01|  0.0000e+00|   -4.818332|   -3.370672|    0.010735|    0.001816|
|        1004|  4.7374e+01|  0.0000e+00|   -4.821484|   -3.371499|    0.010760|    0.001826|
|        1005|  4.7373e+01|  0.0000e+00|   -4.824823|   -3.372344|    0.010785|    0.001836|
|        1006|  4.7373e+01|  0.0000e+00|   -4.828373|   -3.373208|    0.010811|    0.001845|
|        1007|  4.7373e+01|  0.0000e+00|   -4.832099|   -3.374089|    0.010838|    0.001855|
|        1008|  4.7373e+01|  0.0000e+00|   -4.836062|   -3.374989|    0.010865|    0.001865|
|        1009|  4.7373e+01|  0.0000e+00|   -4.840269|   -3.375907|    0.010893|    0.001874|
