
-------------------------------------------------------------------------
|    ___ _   _ ___                                                      |
|   / __| | | |_  )   Release 7.0.0  "Blackbird"                        |
|   \__ \ |_| |/ /                                                      |
|   |___/\___//___|   Suite (Computational Fluid Dynamics Code)         |
|                                                                       |
-------------------------------------------------------------------------
| SU2 Project Website: https://su2code.github.io                        |
|                                                                       |
| The SU2 Project is maintained by the SU2 Foundation                   |
| (http://su2foundation.org)                                            |
-------------------------------------------------------------------------
| Copyright 2012-2019, SU2 Contributors                                 |
|                                                                       |
| SU2 is free software; you can redistribute it and/or                  |
| modify it under the terms of the GNU Lesser General Public            |
| License as published by the Free Software Foundation; either          |
| version 2.1 of the License, or (at your option) any later version.    |
|                                                                       |
| SU2 is distributed in the hope that it will be useful,                |
| but WITHOUT ANY WARRANTY; without even the implied warranty of        |
| MERCHANTABILITY or FITNESS FOR A PARTICULAR PURPOSE. See the GNU      |
| Lesser General Public License for more details.                       |
|                                                                       |
| You should have received a copy of the GNU Lesser General Public      |
| License along with SU2. If not, see <http://www.gnu.org/licenses/>.   |
-------------------------------------------------------------------------

Parsing config file for zone 0

----------------- Physical Case Definition ( Zone 0 ) -------------------
Compressible RANS equations.
Turbulence model: Spalart Allmaras
Hybrid RANS/LES: No Hybrid RANS/LES
Mach number: 0.2.
Angle of attack (AoA): 0 deg, and angle of sideslip (AoS): 0 deg.
Reynolds number: 5e+06. Reference length 1.
No restart solution, use the values at infinity (freestream).
Dimensional simulation.
The reference area is 2 m^2.
The semi-span will be computed using the max y(3D) value.
The reference length is 1 m.
Reference origin for moment evaluation is (0.25, 0, 0).
Surface(s) where the force coefficients are evaluated: wall.

Surface(s) plotted in the output file: wall.
Input mesh file name: mesh_flatplate_100x1000.su2

--------------- Space Numerical Integration ( Zone 0 ) ------------------
Roe (with entropy fix = 0.001) solver for the flow inviscid terms.
Standard Roe without low-dissipation function.
Second order integration in space, with slope limiter.
No slope-limiting method. 
Scalar upwind solver for the turbulence model.
First order integration in space.
Average of gradients with correction (viscous flow terms).
Average of gradients with correction (viscous turbulence terms).
Gradient for upwind reconstruction: inverse-distance weighted Least-Squares.
Gradient for viscous and source terms: inverse-distance weighted Least-Squares.

--------------- Time Numerical Integration  ( Zone 0 ) ------------------
Local time stepping (steady state simulation).
Euler implicit method for the flow equations.
FGMRES is used for solving the linear system.
Using a ILU(0) preconditioning.
Convergence criteria of the linear solver: 0.0001.
Max number of linear iterations: 10.
CFL adaptation. Factor down: 0.1, factor up: 2,
                lower limit: 100, upper limit: 100000.
Courant-Friedrichs-Lewy number:      100
Euler implicit time integration for the turbulence model.

------------------ Convergence Criteria  ( Zone 0 ) ---------------------
Maximum number of solver subiterations: 99999.
Begin convergence monitoring at iteration 10.
Residual minimum value: 1e-14.
Cauchy series min. value: 1e-06.
Number of Cauchy elements: 100.

-------------------- Output Information ( Zone 0 ) ----------------------
Writing solution files every 250 iterations.
Writing the convergence history file every 1 inner iterations.
Writing the screen convergence history every 1 inner iterations.
The tabular file format is CSV (.csv).
Convergence history file name: history.
Forces breakdown file name: forces_breakdown.dat.
Surface file name: surface_flow.
Volume file name: flow.
Restart file name: restart_flow.dat.

------------- Config File Boundary Information ( Zone 0 ) ---------------
+-----------------------------------------------------------------------+
|                        Marker Type|                        Marker Name|
+-----------------------------------------------------------------------+
|                     Symmetry plane|                           symmetry|
+-----------------------------------------------------------------------+
|                     Inlet boundary|                              inlet|
+-----------------------------------------------------------------------+
|                    Outlet boundary|                             outlet|
|                                   |                           farfield|
+-----------------------------------------------------------------------+
|                     Heat flux wall|                               wall|
+-----------------------------------------------------------------------+

-------------------- Output Preprocessing ( Zone 0 ) --------------------
Euler/Navier-Stokes/RANS output structure.
Screen output fields: INNER_ITER, WALL_TIME, RMS_DENSITY, RMS_NU_TILDE, LIFT, DRAG
History output group(s): ITER, RMS_RES
Convergence field(s): RMS_DENSITY
Volume output fields: COORDINATES, SOLUTION, PRIMITIVE

------------------- Geometry Preprocessing ( Zone 0 ) -------------------
Two dimensional problem.
60689 grid points.
119308 volume elements.
5 surface markers.
998 boundary elements in index 0 (Marker = farfield).
36 boundary elements in index 1 (Marker = inlet).
36 boundary elements in index 2 (Marker = outlet).
185 boundary elements in index 3 (Marker = symmetry).
813 boundary elements in index 4 (Marker = wall).
119308 triangles.
Setting point connectivity.
Renumbering points (Reverse Cuthill McKee Ordering).
Recomputing point connectivity.
Setting element connectivity.
Checking the numerical grid orientation.
There has been a re-orientation of the TRIANGLE volume elements.
There has been a re-orientation of the LINE surface elements.
Identifying edges and vertices.
Computing centers of gravity.
Setting the control volume structure.
Area of the computational grid: 0.011232.
Searching for the closest normal neighbors to the surfaces.
Storing a mapping from global to local point index.
Compute the surface curvature.
Max K: 880.117. Mean K: 2.74389. Standard deviation K: 45.1909.
Checking for periodicity.
Computing mesh quality statistics for the dual control volumes.
+--------------------------------------------------------------+
|           Mesh Quality Metric|        Minimum|        Maximum|
+--------------------------------------------------------------+
|    Orthogonality Angle (deg.)|         38.486|             90|
|     CV Face Area Aspect Ratio|        1.00017|        22.8976|
|           CV Sub-Volume Ratio|              1|        22.1341|
+--------------------------------------------------------------+
Finding max control volume width.
Computing wall distances.
Wetted area = 0.3048 m.
Area projection in the x-plane = 0 m, y-plane = 0 m.
Max. coordinate in the x-direction = 0.3048 m, y-direction = 0 m.
Min. coordinate in the x-direction = 6.93889e-18 m, y-direction = 0 m.
Checking if Euler & Symmetry markers are straight/plane:
Boundary marker symmetry is a single straight.

-------------------- Solver Preprocessing ( Zone 0 ) --------------------
Viscous flow: Computing pressure using the ideal gas law
based on the free-stream temperature and a density computed
from the Reynolds number.
Force coefficients computed using free-stream values.

-- Models:
+------------------------------------------------------------------------------+
|          Viscosity Model|        Conductivity Model|              Fluid Model|
+------------------------------------------------------------------------------+
|               SUTHERLAND|          CONSTANT_PRANDTL|             STANDARD_AIR|
+------------------------------------------------------------------------------+
-- Fluid properties:
+------------------------------------------------------------------------------+
|                  Name|    Dim. value|    Ref. value|      Unit|Non-dim. value|
+------------------------------------------------------------------------------+
|        Ref. Viscosity|     1.716e-05|             1|   N.s/m^2|     1.716e-05|
|      Sutherland Temp.|        273.15|             1|         K|        273.15|
|     Sutherland Const.|         110.4|             1|         K|         110.4|
+------------------------------------------------------------------------------+
|        Prandtl (Lam.)|             -|             -|         -|          0.72|
|       Prandtl (Turb.)|             -|             -|         -|           0.9|
+------------------------------------------------------------------------------+
|          Gas Constant|       287.058|             1|  N.m/kg.K|       287.058|
|      Spec. Heat Ratio|             -|             -|         -|           1.4|
+------------------------------------------------------------------------------+
-- Initial and free-stream conditions:
+------------------------------------------------------------------------------+
|                  Name|    Dim. value|    Ref. value|      Unit|Non-dim. value|
+------------------------------------------------------------------------------+
|       Static Pressure|        114455|             1|        Pa|        114455|
|               Density|       1.32905|             1|    kg/m^3|       1.32905|
|           Temperature|           300|             1|         K|           300|
|          Total Energy|        217705|             1|   m^2/s^2|        217705|
|            Velocity-X|       69.4448|             1|       m/s|       69.4448|
|            Velocity-Y|             0|             1|       m/s|             0|
|    Velocity Magnitude|       69.4448|             1|       m/s|       69.4448|
+------------------------------------------------------------------------------+
|             Viscosity|   1.84592e-05|             1|   N.s/m^2|   1.84592e-05|
|          Conductivity|             -|             1|   W/m^2.K|             -|
|     Turb. Kin. Energy|       18.0847|             1|   m^2/s^2|       18.0847|
|     Spec. Dissipation|        130209|             1|       1/s|        130209|
+------------------------------------------------------------------------------+
|           Mach Number|             -|             -|         -|           0.2|
|       Reynolds Number|             -|             -|         -|         5e+06|
+------------------------------------------------------------------------------+
Initialize Jacobian structure (Navier-Stokes). MG level: 0.
Initialize Jacobian structure (SA model).

------------------- Numerics Preprocessing ( Zone 0 ) -------------------

----------------- Integration Preprocessing ( Zone 0 ) ------------------

------------------- Iteration Preprocessing ( Zone 0 ) ------------------
Euler/Navier-Stokes/RANS fluid iteration.

------------------------------ Begin Solver -----------------------------

Simulation Run using the Single-zone Driver
preconditon Time:0.062856

# FGMRES residual history
# Residual tolerance target = 0.0001
# Initial residual norm     = 11497.4
     0     1
Smoother Time:0.01692
Smoother Time:0.033424
Smoother Time:0.04977
Smoother Time:0.066103
Smoother Time:0.082549
Smoother Time:0.09902
Smoother Time:0.115767
Smoother Time:0.132831
Smoother Time:0.149646
Smoother Time:0.166602
     10     0.0195369
# FGMRES final (true) residual:
# Iteration = 10: |res|/|res0| = 0.0195369.

FGMRES Solver Time:0.297002
Total Time:0.359922
preconditon Time:0.011787

# FGMRES residual history
# Residual tolerance target = 0.0001
# Initial residual norm     = 3.48618e-06
     0     1
# FGMRES final (true) residual:
# Iteration = 6: |res|/|res0| = 9.8123e-05.

FGMRES Solver Time:0.027829
+-----------------------------------------------------------------------------+
|  Inner_Iter|   Time(sec)|    rms[Rho]|     rms[nu]|          CL|          CD|
+-----------------------------------------------------------------------------+
|           0|  6.9216e-01|   -3.811274|   -7.849205|   -0.071956|    0.000615|
preconditon Time:0.062026

# FGMRES residual history
# Residual tolerance target = 0.0001
# Initial residual norm     = 12354.6
     0     1
Smoother Time:0.016348
Smoother Time:0.032581
Smoother Time:0.048848
Smoother Time:0.065338
Smoother Time:0.082188
Smoother Time:0.09887
Smoother Time:0.115592
Smoother Time:0.13243
Smoother Time:0.149569
Smoother Time:0.166532
     10     0.0211853
# FGMRES final (true) residual:
# Iteration = 10: |res|/|res0| = 0.0211853.

FGMRES Solver Time:0.2845
Total Time:0.346579
preconditon Time:0.011011

# FGMRES residual history
# Residual tolerance target = 0.0001
# Initial residual norm     = 3.05577e-06
     0     1
     10     0.00028077
# FGMRES final (true) residual:
# Iteration = 10: |res|/|res0| = 0.00028077.

FGMRES Solver Time:0.040004
|           1|  6.9200e-01|   -3.782900|   -7.906434|   -0.063032|    0.000530|
preconditon Time:0.06207

# FGMRES residual history
# Residual tolerance target = 0.0001
# Initial residual norm     = 7866.33
     0     1
Smoother Time:0.016591
Smoother Time:0.033667
Smoother Time:0.050301
Smoother Time:0.066615
Smoother Time:0.083497
Smoother Time:0.100259
Smoother Time:0.116906
Smoother Time:0.133789
Smoother Time:0.150653
Smoother Time:0.167359
     10     0.0398995
# FGMRES final (true) residual:
# Iteration = 10: |res|/|res0| = 0.0398995.

FGMRES Solver Time:0.285864
Total Time:0.347989
preconditon Time:0.011178

# FGMRES residual history
# Residual tolerance target = 0.0001
# Initial residual norm     = 4.22585e-06
     0     1
     10     0.00131881
# FGMRES final (true) residual:
# Iteration = 10: |res|/|res0| = 0.00131881.

FGMRES Solver Time:0.040184
|           2|  6.9049e-01|   -3.979286|   -7.765641|   -0.041745|    0.000443|
preconditon Time:0.063575

# FGMRES residual history
# Residual tolerance target = 0.0001
# Initial residual norm     = 4664.2
     0     1
Smoother Time:0.016797
Smoother Time:0.033346
Smoother Time:0.049909
Smoother Time:0.06639
Smoother Time:0.082998
Smoother Time:0.099455
Smoother Time:0.116039
Smoother Time:0.132716
Smoother Time:0.149632
Smoother Time:0.166228
     10     0.0923903
# FGMRES final (true) residual:
# Iteration = 10: |res|/|res0| = 0.0923903.

FGMRES Solver Time:0.284192
Total Time:0.347817
preconditon Time:0.01122

# FGMRES residual history
# Residual tolerance target = 0.0001
# Initial residual norm     = 7.6281e-06
     0     1
     10     0.00286518
# FGMRES final (true) residual:
# Iteration = 10: |res|/|res0| = 0.00286518.

FGMRES Solver Time:0.040522
|           3|  6.9114e-01|   -4.206832|   -7.509139|   -0.024981|    0.000366|
preconditon Time:0.062398

# FGMRES residual history
# Residual tolerance target = 0.0001
# Initial residual norm     = 3301.75
     0     1
Smoother Time:0.016411
Smoother Time:0.032882
Smoother Time:0.049331
Smoother Time:0.065663
Smoother Time:0.082246
Smoother Time:0.099337
Smoother Time:0.115835
Smoother Time:0.132719
Smoother Time:0.149552
Smoother Time:0.1661
     10     0.0798009
# FGMRES final (true) residual:
# Iteration = 10: |res|/|res0| = 0.0798009.

FGMRES Solver Time:0.283814
Total Time:0.346267
preconditon Time:0.011146

# FGMRES residual history
# Residual tolerance target = 0.0001
# Initial residual norm     = 5.81455e-06
     0     1
     10     0.0104356
# FGMRES final (true) residual:
# Iteration = 10: |res|/|res0| = 0.0104356.

FGMRES Solver Time:0.041388
|           4|  6.9081e-01|   -4.357107|   -7.627039|   -0.020735|    0.000321|
preconditon Time:0.064578

# FGMRES residual history
# Residual tolerance target = 0.0001
# Initial residual norm     = 2925.18
     0     1
Smoother Time:0.016634
Smoother Time:0.033262
Smoother Time:0.049789
Smoother Time:0.06631
Smoother Time:0.08284
Smoother Time:0.099521
Smoother Time:0.116202
Smoother Time:0.132851
Smoother Time:0.149695
Smoother Time:0.166661
     10     0.116066
# FGMRES final (true) residual:
# Iteration = 10: |res|/|res0| = 0.116066.

FGMRES Solver Time:0.285348
Total Time:0.349978
preconditon Time:0.011128

# FGMRES residual history
# Residual tolerance target = 0.0001
# Initial residual norm     = 5.58235e-06
     0     1
     10     0.0174628
# FGMRES final (true) residual:
# Iteration = 10: |res|/|res0| = 0.0174628.

FGMRES Solver Time:0.039993
|           5|  6.9087e-01|   -4.410769|   -7.644738|   -0.022685|    0.000291|
preconditon Time:0.063214

# FGMRES residual history
# Residual tolerance target = 0.0001
# Initial residual norm     = 1747.6
     0     1
Smoother Time:0.016256
Smoother Time:0.032735
Smoother Time:0.049156
Smoother Time:0.06594
Smoother Time:0.082721
Smoother Time:0.099629
Smoother Time:0.116499
Smoother Time:0.133277
Smoother Time:0.150131
Smoother Time:0.167248
     10     0.147194
# FGMRES final (true) residual:
# Iteration = 10: |res|/|res0| = 0.147194.

FGMRES Solver Time:0.286979
Total Time:0.350253
preconditon Time:0.011167

# FGMRES residual history
# Residual tolerance target = 0.0001
# Initial residual norm     = 5.63523e-06
     0     1
     10     0.0222213
# FGMRES final (true) residual:
# Iteration = 10: |res|/|res0| = 0.0222213.

FGMRES Solver Time:0.039674
|           6|  6.9108e-01|   -4.633929|   -7.640643|   -0.023417|    0.000268|
preconditon Time:0.064098

# FGMRES residual history
# Residual tolerance target = 0.0001
# Initial residual norm     = 1265.88
     0     1
Smoother Time:0.016513
Smoother Time:0.03294
Smoother Time:0.049459
Smoother Time:0.065888
Smoother Time:0.082506
Smoother Time:0.099356
Smoother Time:0.116545
Smoother Time:0.133417
Smoother Time:0.150018
Smoother Time:0.167231
     10     0.17323
# FGMRES final (true) residual:
# Iteration = 10: |res|/|res0| = 0.17323.

FGMRES Solver Time:0.28678
Total Time:0.350928
preconditon Time:0.01118

# FGMRES residual history
# Residual tolerance target = 0.0001
# Initial residual norm     = 5.62131e-06
     0     1
     10     0.0246876
# FGMRES final (true) residual:
# Iteration = 10: |res|/|res0| = 0.0246876.

FGMRES Solver Time:0.039843
|           7|  6.9087e-01|   -4.773361|   -7.641717|   -0.022646|    0.000250|
preconditon Time:0.063418

# FGMRES residual history
# Residual tolerance target = 0.0001
# Initial residual norm     = 1050.51
     0     1
Smoother Time:0.01691
Smoother Time:0.03372
Smoother Time:0.050457
Smoother Time:0.067195
Smoother Time:0.084122
Smoother Time:0.10089
Smoother Time:0.11767
Smoother Time:0.134402
Smoother Time:0.151059
Smoother Time:0.167908
     10     0.185708
# FGMRES final (true) residual:
# Iteration = 10: |res|/|res0| = 0.185708.

FGMRES Solver Time:0.28823
Total Time:0.3517
preconditon Time:0.011451

# FGMRES residual history
# Residual tolerance target = 0.0001
# Initial residual norm     = 5.62429e-06
     0     1
     10     0.0272446
# FGMRES final (true) residual:
# Iteration = 10: |res|/|res0| = 0.0272446.

FGMRES Solver Time:0.040759
|           8|  6.9161e-01|   -4.856900|   -7.641488|   -0.023382|    0.000236|
preconditon Time:0.063118

# FGMRES residual history
# Residual tolerance target = 0.0001
# Initial residual norm     = 1166.34
     0     1
Smoother Time:0.016348
Smoother Time:0.032619
Smoother Time:0.049213
Smoother Time:0.065732
Smoother Time:0.082201
Smoother Time:0.098751
Smoother Time:0.115593
Smoother Time:0.132948
Smoother Time:0.149789
Smoother Time:0.166595
     10     0.158272
# FGMRES final (true) residual:
# Iteration = 10: |res|/|res0| = 0.158272.

FGMRES Solver Time:0.284981
Total Time:0.34815
preconditon Time:0.011303

# FGMRES residual history
# Residual tolerance target = 0.0001
# Initial residual norm     = 5.62466e-06
     0     1
     10     0.0285355
# FGMRES final (true) residual:
# Iteration = 10: |res|/|res0| = 0.0285355.

FGMRES Solver Time:0.041116
|           9|  6.9142e-01|   -4.804320|   -7.641459|   -0.025213|    0.000224|
preconditon Time:0.062471

# FGMRES residual history
# Residual tolerance target = 0.0001
# Initial residual norm     = 1506.89
     0     1
Smoother Time:0.016432
Smoother Time:0.032756
Smoother Time:0.049725
Smoother Time:0.066515
Smoother Time:0.083274
Smoother Time:0.100134
Smoother Time:0.11675
Smoother Time:0.133248
Smoother Time:0.149901
Smoother Time:0.16644
     10     0.105965
# FGMRES final (true) residual:
# Iteration = 10: |res|/|res0| = 0.105965.

FGMRES Solver Time:0.284622
Total Time:0.347154
preconditon Time:0.01097

# FGMRES residual history
# Residual tolerance target = 0.0001
# Initial residual norm     = 5.4422e-06
     0     1
     10     0.0335993
# FGMRES final (true) residual:
# Iteration = 10: |res|/|res0| = 0.0335993.

FGMRES Solver Time:0.039749
|          10|  6.9095e-01|   -4.694814|   -7.655781|   -0.026470|    0.000213|
preconditon Time:0.063775

# FGMRES residual history
# Residual tolerance target = 0.0001
# Initial residual norm     = 2422.6
     0     1
Smoother Time:0.016544
Smoother Time:0.033021
Smoother Time:0.049328
Smoother Time:0.065812
Smoother Time:0.082192
Smoother Time:0.098753
Smoother Time:0.115367
Smoother Time:0.13204
Smoother Time:0.14885
Smoother Time:0.165631
     10     0.0536655
# FGMRES final (true) residual:
# Iteration = 10: |res|/|res0| = 0.0536655.

FGMRES Solver Time:0.282974
Total Time:0.346801
preconditon Time:0.011273

# FGMRES residual history
# Residual tolerance target = 0.0001
# Initial residual norm     = 5.016e-06
     0     1
     10     0.0368765
# FGMRES final (true) residual:
# Iteration = 10: |res|/|res0| = 0.0368765.

FGMRES Solver Time:0.040476
|          11|  6.9078e-01|   -4.492201|   -7.691197|   -0.026561|    0.000204|
preconditon Time:0.063029

# FGMRES residual history
# Residual tolerance target = 0.0001
# Initial residual norm     = 3739.52
     0     1
Smoother Time:0.016313
Smoother Time:0.032655
Smoother Time:0.048958
Smoother Time:0.065517
Smoother Time:0.082649
Smoother Time:0.099484
Smoother Time:0.116189
Smoother Time:0.132915
Smoother Time:0.149672
Smoother Time:0.166501
     10     0.03499
# FGMRES final (true) residual:
# Iteration = 10: |res|/|res0| = 0.03499.

FGMRES Solver Time:0.284334
Total Time:0.347415
preconditon Time:0.011467

# FGMRES residual history
# Residual tolerance target = 0.0001
# Initial residual norm     = 4.62148e-06
     0     1
     10     0.038305
# FGMRES final (true) residual:
# Iteration = 10: |res|/|res0| = 0.038305.

FGMRES Solver Time:0.040157
|          12|  6.9092e-01|   -4.296663|   -7.726774|   -0.026207|    0.000197|
preconditon Time:0.06208

# FGMRES residual history
# Residual tolerance target = 0.0001
# Initial residual norm     = 6266.34
     0     1
Smoother Time:0.016351
Smoother Time:0.032583
Smoother Time:0.048941
Smoother Time:0.065292
Smoother Time:0.081733
Smoother Time:0.098199
Smoother Time:0.11494
Smoother Time:0.131773
Smoother Time:0.148906
Smoother Time:0.165576
     10     0.0212597
# FGMRES final (true) residual:
# Iteration = 10: |res|/|res0| = 0.0212597.

FGMRES Solver Time:0.284288
Total Time:0.346421
preconditon Time:0.011125

# FGMRES residual history
# Residual tolerance target = 0.0001
# Initial residual norm     = 4.25207e-06
     0     1
     10     0.0403783
# FGMRES final (true) residual:
# Iteration = 10: |res|/|res0| = 0.0403783.

FGMRES Solver Time:0.040918
|          13|  6.9064e-01|   -4.079326|   -7.762954|   -0.025747|    0.000190|
preconditon Time:0.062399

# FGMRES residual history
# Residual tolerance target = 0.0001
# Initial residual norm     = 10175.6
     0     1
Smoother Time:0.016454
Smoother Time:0.033167
Smoother Time:0.050065
Smoother Time:0.066737
Smoother Time:0.083667
Smoother Time:0.100632
Smoother Time:0.117297
Smoother Time:0.133779
Smoother Time:0.150716
Smoother Time:0.167457
     10     0.0114869
# FGMRES final (true) residual:
# Iteration = 10: |res|/|res0| = 0.0114869.

FGMRES Solver Time:0.286614
Total Time:0.349065
preconditon Time:0.011087

# FGMRES residual history
# Residual tolerance target = 0.0001
# Initial residual norm     = 3.90145e-06
     0     1
     10     0.0398932
# FGMRES final (true) residual:
# Iteration = 10: |res|/|res0| = 0.0398932.

FGMRES Solver Time:0.039756
|          14|  6.9039e-01|   -3.858829|   -7.800329|   -0.025120|    0.000184|
preconditon Time:0.064601

# FGMRES residual history
# Residual tolerance target = 0.0001
# Initial residual norm     = 17198.8
     0     1
Smoother Time:0.016367
Smoother Time:0.033094
Smoother Time:0.050136
Smoother Time:0.066555
Smoother Time:0.083086
Smoother Time:0.099608
Smoother Time:0.116736
Smoother Time:0.133776
Smoother Time:0.150511
Smoother Time:0.167201
     10     0.00675032
# FGMRES final (true) residual:
# Iteration = 10: |res|/|res0| = 0.00675032.

FGMRES Solver Time:0.286487
Total Time:0.351145
preconditon Time:0.01116

# FGMRES residual history
# Residual tolerance target = 0.0001
# Initial residual norm     = 3.57523e-06
     0     1
     10     0.043369
# FGMRES final (true) residual:
# Iteration = 10: |res|/|res0| = 0.043369.

FGMRES Solver Time:0.040715
|          15|  6.9046e-01|   -3.643125|   -7.838251|   -0.025214|    0.000180|
preconditon Time:0.063324

# FGMRES residual history
# Residual tolerance target = 0.0001
# Initial residual norm     = 26507.8
     0     1
Smoother Time:0.016363
Smoother Time:0.03297
Smoother Time:0.049578
Smoother Time:0.066117
Smoother Time:0.082673
Smoother Time:0.099234
Smoother Time:0.115809
Smoother Time:0.132582
Smoother Time:0.149368
Smoother Time:0.166333
     10     0.00548005
# FGMRES final (true) residual:
# Iteration = 10: |res|/|res0| = 0.00548005.

FGMRES Solver Time:0.285141
Total Time:0.348519
preconditon Time:0.011242

# FGMRES residual history
# Residual tolerance target = 0.0001
# Initial residual norm     = 3.17403e-06
     0     1
     10     0.0628152
# FGMRES final (true) residual:
# Iteration = 10: |res|/|res0| = 0.0628152.

FGMRES Solver Time:0.039803
|          16|  6.9056e-01|   -3.426715|   -7.889945|   -0.025549|    0.000175|
preconditon Time:0.062589

# FGMRES residual history
# Residual tolerance target = 0.0001
# Initial residual norm     = 33193.1
     0     1
Smoother Time:0.016308
Smoother Time:0.032745
Smoother Time:0.049324
Smoother Time:0.06581
Smoother Time:0.082338
Smoother Time:0.099157
Smoother Time:0.116571
Smoother Time:0.133432
Smoother Time:0.150157
Smoother Time:0.167076
     10     0.00469028
# FGMRES final (true) residual:
# Iteration = 10: |res|/|res0| = 0.00469028.

FGMRES Solver Time:0.286303
Total Time:0.348951
preconditon Time:0.011211

# FGMRES residual history
# Residual tolerance target = 0.0001
# Initial residual norm     = 2.87493e-06
     0     1
     10     0.0790194
# FGMRES final (true) residual:
# Iteration = 10: |res|/|res0| = 0.0790194.

FGMRES Solver Time:0.039703
|          17|  6.9035e-01|   -3.340901|   -7.932928|   -0.027195|    0.000172|
preconditon Time:0.063681

# FGMRES residual history
# Residual tolerance target = 0.0001
# Initial residual norm     = 41858.2
     0     1
Smoother Time:0.016778
Smoother Time:0.033665
Smoother Time:0.050187
Smoother Time:0.066732
Smoother Time:0.083083
Smoother Time:0.099621
Smoother Time:0.116341
Smoother Time:0.133283
Smoother Time:0.14985
Smoother Time:0.1665
     10     0.00510622
# FGMRES final (true) residual:
# Iteration = 10: |res|/|res0| = 0.00510622.

FGMRES Solver Time:0.28493
Total Time:0.348667
preconditon Time:0.011578

# FGMRES residual history
# Residual tolerance target = 0.0001
# Initial residual norm     = 2.59462e-06
     0     1
     10     0.109576
# FGMRES final (true) residual:
# Iteration = 10: |res|/|res0| = 0.109576.

FGMRES Solver Time:0.04112
|          18|  6.9050e-01|   -3.222716|   -7.977481|   -0.027162|    0.000169|
preconditon Time:0.062571

# FGMRES residual history
# Residual tolerance target = 0.0001
# Initial residual norm     = 33761.1
     0     1
Smoother Time:0.016112
Smoother Time:0.032408
Smoother Time:0.04914
Smoother Time:0.06557
Smoother Time:0.082196
Smoother Time:0.098819
Smoother Time:0.115506
Smoother Time:0.132306
Smoother Time:0.148855
Smoother Time:0.165561
     10     0.00623627
# FGMRES final (true) residual:
# Iteration = 10: |res|/|res0| = 0.00623627.

FGMRES Solver Time:0.283093
Total Time:0.345728
preconditon Time:0.011456

# FGMRES residual history
# Residual tolerance target = 0.0001
# Initial residual norm     = 2.3455e-06
     0     1
     10     0.129836
# FGMRES final (true) residual:
# Iteration = 10: |res|/|res0| = 0.129836.

FGMRES Solver Time:0.040988
|          19|  6.9056e-01|   -3.354123|   -8.021320|   -0.027749|    0.000166|
preconditon Time:0.062794

# FGMRES residual history
# Residual tolerance target = 0.0001
# Initial residual norm     = 32697.3
     0     1
Smoother Time:0.016278
Smoother Time:0.032634
Smoother Time:0.04892
Smoother Time:0.065245
Smoother Time:0.081848
Smoother Time:0.098287
Smoother Time:0.114926
Smoother Time:0.131987
Smoother Time:0.148655
Smoother Time:0.165616
     10     0.00690457
# FGMRES final (true) residual:
# Iteration = 10: |res|/|res0| = 0.00690457.

FGMRES Solver Time:0.28431
Total Time:0.347162
preconditon Time:0.011126

# FGMRES residual history
# Residual tolerance target = 0.0001
# Initial residual norm     = 2.14724e-06
     0     1
     10     0.136779
# FGMRES final (true) residual:
# Iteration = 10: |res|/|res0| = 0.136779.

FGMRES Solver Time:0.04013
|          20|  6.9036e-01|   -3.342563|   -8.059674|   -0.026190|    0.000164|
preconditon Time:0.06392

# FGMRES residual history
# Residual tolerance target = 0.0001
# Initial residual norm     = 27613.8
     0     1
Smoother Time:0.016343
Smoother Time:0.03254
Smoother Time:0.049141
Smoother Time:0.065717
Smoother Time:0.082585
Smoother Time:0.099591
Smoother Time:0.116454
Smoother Time:0.133385
Smoother Time:0.150136
Smoother Time:0.166578
     10     0.00849087
# FGMRES final (true) residual:
# Iteration = 10: |res|/|res0| = 0.00849087.

FGMRES Solver Time:0.286068
Total Time:0.35004
preconditon Time:0.011176

# FGMRES residual history
# Residual tolerance target = 0.0001
# Initial residual norm     = 1.89112e-06
     0     1
     10     0.154597
# FGMRES final (true) residual:
# Iteration = 10: |res|/|res0| = 0.154597.

FGMRES Solver Time:0.040591
|          21|  6.9042e-01|   -3.422524|   -8.114837|   -0.026403|    0.000162|
preconditon Time:0.063606

# FGMRES residual history
# Residual tolerance target = 0.0001
# Initial residual norm     = 26526.3
     0     1
Smoother Time:0.016971
Smoother Time:0.03366
Smoother Time:0.050365
Smoother Time:0.066793
Smoother Time:0.083255
Smoother Time:0.099773
Smoother Time:0.116282
Smoother Time:0.132932
Smoother Time:0.149981
Smoother Time:0.166822
     10     0.0072365
# FGMRES final (true) residual:
# Iteration = 10: |res|/|res0| = 0.0072365.

FGMRES Solver Time:0.285783
Total Time:0.349456
preconditon Time:0.011561

# FGMRES residual history
# Residual tolerance target = 0.0001
# Initial residual norm     = 1.69854e-06
     0     1
     10     0.136916
# FGMRES final (true) residual:
# Iteration = 10: |res|/|res0| = 0.136916.

FGMRES Solver Time:0.040897
|          22|  6.9052e-01|   -3.428389|   -8.161479|   -0.025744|    0.000160|
preconditon Time:0.062231

# FGMRES residual history
# Residual tolerance target = 0.0001
# Initial residual norm     = 28570.8
     0     1
Smoother Time:0.016385
Smoother Time:0.033006
Smoother Time:0.049664
Smoother Time:0.066502
Smoother Time:0.083283
Smoother Time:0.100139
Smoother Time:0.11709
Smoother Time:0.133802
Smoother Time:0.150323
Smoother Time:0.166944
     10     0.00848672
# FGMRES final (true) residual:
# Iteration = 10: |res|/|res0| = 0.00848672.

FGMRES Solver Time:0.285763
Total Time:0.348047
preconditon Time:0.01128

# FGMRES residual history
# Residual tolerance target = 0.0001
# Initial residual norm     = 1.50792e-06
     0     1
     10     0.155383
# FGMRES final (true) residual:
# Iteration = 10: |res|/|res0| = 0.155383.

FGMRES Solver Time:0.040475
|          23|  6.9060e-01|   -3.470182|   -8.213178|   -0.026882|    0.000158|
preconditon Time:0.06182

# FGMRES residual history
# Residual tolerance target = 0.0001
# Initial residual norm     = 30446.6
     0     1
Smoother Time:0.016351
Smoother Time:0.032964
Smoother Time:0.049461
Smoother Time:0.065826
Smoother Time:0.0824
Smoother Time:0.098894
Smoother Time:0.115483
Smoother Time:0.132251
Smoother Time:0.149104
Smoother Time:0.166049
     10     0.00879974
# FGMRES final (true) residual:
# Iteration = 10: |res|/|res0| = 0.00879974.

FGMRES Solver Time:0.284035
Total Time:0.345921
preconditon Time:0.011278

# FGMRES residual history
# Residual tolerance target = 0.0001
# Initial residual norm     = 1.34507e-06
     0     1
     10     0.154186
# FGMRES final (true) residual:
# Iteration = 10: |res|/|res0| = 0.154186.

FGMRES Solver Time:0.040525
|          24|  6.9047e-01|   -3.385716|   -8.262809|   -0.026531|    0.000157|
preconditon Time:0.06208

# FGMRES residual history
# Residual tolerance target = 0.0001
# Initial residual norm     = 22257.1
     0     1
Smoother Time:0.016401
Smoother Time:0.03283
Smoother Time:0.049578
Smoother Time:0.066152
Smoother Time:0.082919
Smoother Time:0.099568
Smoother Time:0.116365
Smoother Time:0.132827
Smoother Time:0.149351
Smoother Time:0.166055
     10     0.0110949
# FGMRES final (true) residual:
# Iteration = 10: |res|/|res0| = 0.0110949.

FGMRES Solver Time:0.285194
Total Time:0.347328
preconditon Time:0.010912

# FGMRES residual history
# Residual tolerance target = 0.0001
# Initial residual norm     = 1.25202e-06
     0     1
     10     0.154941
# FGMRES final (true) residual:
# Iteration = 10: |res|/|res0| = 0.154941.

FGMRES Solver Time:0.039969
|          25|  6.9041e-01|   -3.497855|   -8.293944|   -0.027542|    0.000156|
preconditon Time:0.06441

# FGMRES residual history
# Residual tolerance target = 0.0001
# Initial residual norm     = 19475.5
     0     1
Smoother Time:0.016532
Smoother Time:0.032993
Smoother Time:0.049347
Smoother Time:0.065865
Smoother Time:0.082289
Smoother Time:0.098807
Smoother Time:0.115302
Smoother Time:0.131748
Smoother Time:0.148363
Smoother Time:0.165366
     10     0.00928464
# FGMRES final (true) residual:
# Iteration = 10: |res|/|res0| = 0.00928464.

FGMRES Solver Time:0.28309
Total Time:0.347559
preconditon Time:0.011063

# FGMRES residual history
# Residual tolerance target = 0.0001
# Initial residual norm     = 1.05823e-06
     0     1
     10     0.161564
# FGMRES final (true) residual:
# Iteration = 10: |res|/|res0| = 0.161564.

FGMRES Solver Time:0.039787
|          26|  6.9021e-01|   -3.558506|   -8.366975|   -0.027000|    0.000155|
preconditon Time:0.062569

# FGMRES residual history
# Residual tolerance target = 0.0001
# Initial residual norm     = 15622.5
     0     1
Smoother Time:0.01621
Smoother Time:0.032486
Smoother Time:0.048948
Smoother Time:0.065295
Smoother Time:0.081904
Smoother Time:0.098578
Smoother Time:0.11546
Smoother Time:0.132277
Smoother Time:0.149044
Smoother Time:0.165733
     10     0.00874512
# FGMRES final (true) residual:
# Iteration = 10: |res|/|res0| = 0.00874512.

FGMRES Solver Time:0.283977
Total Time:0.34661
preconditon Time:0.011614

# FGMRES residual history
# Residual tolerance target = 0.0001
# Initial residual norm     = 9.39438e-07
     0     1
     10     0.163987
# FGMRES final (true) residual:
# Iteration = 10: |res|/|res0| = 0.163987.

FGMRES Solver Time:0.040762
|          27|  6.9023e-01|   -3.716951|   -8.418687|   -0.027351|    0.000154|
preconditon Time:0.062433

# FGMRES residual history
# Residual tolerance target = 0.0001
# Initial residual norm     = 12687.2
     0     1
Smoother Time:0.016178
Smoother Time:0.032484
Smoother Time:0.048943
Smoother Time:0.065896
Smoother Time:0.082578
Smoother Time:0.099063
Smoother Time:0.116189
Smoother Time:0.132959
Smoother Time:0.150001
Smoother Time:0.166723
     10     0.00878542
# FGMRES final (true) residual:
# Iteration = 10: |res|/|res0| = 0.00878542.

FGMRES Solver Time:0.285633
Total Time:0.348118
preconditon Time:0.011

# FGMRES residual history
# Residual tolerance target = 0.0001
# Initial residual norm     = 8.10274e-07
     0     1
     10     0.165452
# FGMRES final (true) residual:
# Iteration = 10: |res|/|res0| = 0.165452.

FGMRES Solver Time:0.039635
|          28|  6.9017e-01|   -3.774869|   -8.482923|   -0.026881|    0.000153|
preconditon Time:0.062503

# FGMRES residual history
# Residual tolerance target = 0.0001
# Initial residual norm     = 11051.9
     0     1
Smoother Time:0.01653
Smoother Time:0.033456
Smoother Time:0.050304
Smoother Time:0.06708
Smoother Time:0.083824
Smoother Time:0.10034
Smoother Time:0.116873
Smoother Time:0.133629
Smoother Time:0.150207
Smoother Time:0.166836
     10     0.00898835
# FGMRES final (true) residual:
# Iteration = 10: |res|/|res0| = 0.00898835.

FGMRES Solver Time:0.285367
Total Time:0.347925
preconditon Time:0.011253

# FGMRES residual history
# Residual tolerance target = 0.0001
# Initial residual norm     = 6.97042e-07
     0     1
     10     0.177187
# FGMRES final (true) residual:
# Iteration = 10: |res|/|res0| = 0.177187.

FGMRES Solver Time:0.040281
|          29|  6.9010e-01|   -3.847826|   -8.548296|   -0.027084|    0.000152|
preconditon Time:0.066112

# FGMRES residual history
# Residual tolerance target = 0.0001
# Initial residual norm     = 9659.37
     0     1
Smoother Time:0.0172
Smoother Time:0.034084
Smoother Time:0.050939
Smoother Time:0.068299
Smoother Time:0.085084
Smoother Time:0.101929
Smoother Time:0.118715
Smoother Time:0.13566
Smoother Time:0.152249
Smoother Time:0.16907
     10     0.00938184
# FGMRES final (true) residual:
# Iteration = 10: |res|/|res0| = 0.00938184.

FGMRES Solver Time:0.289057
Total Time:0.355222
preconditon Time:0.011073

# FGMRES residual history
# Residual tolerance target = 0.0001
# Initial residual norm     = 6.00656e-07
     0     1
     10     0.178273
# FGMRES final (true) residual:
# Iteration = 10: |res|/|res0| = 0.178273.

FGMRES Solver Time:0.040891
|          30|  6.9033e-01|   -3.886725|   -8.612929|   -0.026817|    0.000152|
preconditon Time:0.064531

# FGMRES residual history
# Residual tolerance target = 0.0001
# Initial residual norm     = 9160.28
     0     1
Smoother Time:0.016603
Smoother Time:0.03294
Smoother Time:0.049417
Smoother Time:0.065917
Smoother Time:0.082362
Smoother Time:0.098843
Smoother Time:0.115565
Smoother Time:0.132294
Smoother Time:0.148986
Smoother Time:0.165592
     10     0.00852401
# FGMRES final (true) residual:
# Iteration = 10: |res|/|res0| = 0.00852401.

FGMRES Solver Time:0.283212
Total Time:0.347795
preconditon Time:0.011347

# FGMRES residual history
# Residual tolerance target = 0.0001
# Initial residual norm     = 5.5238e-07
     0     1
     10     0.176878
# FGMRES final (true) residual:
# Iteration = 10: |res|/|res0| = 0.176878.

FGMRES Solver Time:0.040474
|          31|  6.9041e-01|   -3.931778|   -8.649317|   -0.027142|    0.000151|
preconditon Time:0.062375

# FGMRES residual history
# Residual tolerance target = 0.0001
# Initial residual norm     = 8404.1
     0     1
Smoother Time:0.016247
Smoother Time:0.032769
Smoother Time:0.049052
Smoother Time:0.065471
Smoother Time:0.082004
Smoother Time:0.0989
Smoother Time:0.115856
Smoother Time:0.132868
Smoother Time:0.149582
Smoother Time:0.16656
     10     0.00943767
# FGMRES final (true) residual:
# Iteration = 10: |res|/|res0| = 0.00943767.

FGMRES Solver Time:0.285643
Total Time:0.348071
preconditon Time:0.011321

# FGMRES residual history
# Residual tolerance target = 0.0001
# Initial residual norm     = 5.06254e-07
     0     1
     10     0.19038
# FGMRES final (true) residual:
# Iteration = 10: |res|/|res0| = 0.19038.

FGMRES Solver Time:0.039993
|          32|  6.9032e-01|   -3.943730|   -8.687187|   -0.026966|    0.000151|
preconditon Time:0.064224

# FGMRES residual history
# Residual tolerance target = 0.0001
# Initial residual norm     = 8382.39
     0     1
Smoother Time:0.016852
Smoother Time:0.033827
Smoother Time:0.051048
Smoother Time:0.068226
Smoother Time:0.084966
Smoother Time:0.101796
Smoother Time:0.11856
Smoother Time:0.135314
Smoother Time:0.152179
Smoother Time:0.169034
     10     0.00890472
# FGMRES final (true) residual:
# Iteration = 10: |res|/|res0| = 0.00890472.

FGMRES Solver Time:0.289695
Total Time:0.35397
preconditon Time:0.011434

# FGMRES residual history
# Residual tolerance target = 0.0001
# Initial residual norm     = 4.74382e-07
     0     1
     10     0.197269
# FGMRES final (true) residual:
# Iteration = 10: |res|/|res0| = 0.197269.

FGMRES Solver Time:0.041029
|          33|  6.9048e-01|   -3.964602|   -8.715427|   -0.027280|    0.000150|
preconditon Time:0.069661

# FGMRES residual history
# Residual tolerance target = 0.0001
# Initial residual norm     = 8017.53
     0     1
Smoother Time:0.018478
Smoother Time:0.034887
Smoother Time:0.051074
Smoother Time:0.067651
Smoother Time:0.084385
Smoother Time:0.101825
Smoother Time:0.120046
Smoother Time:0.137911
Smoother Time:0.154726
Smoother Time:0.171411
     10     0.00909747
# FGMRES final (true) residual:
# Iteration = 10: |res|/|res0| = 0.00909747.

FGMRES Solver Time:0.293542
Total Time:0.363258
preconditon Time:0.013216

# FGMRES residual history
# Residual tolerance target = 0.0001
# Initial residual norm     = 4.47905e-07
     0     1
     10     0.198457
# FGMRES final (true) residual:
# Iteration = 10: |res|/|res0| = 0.198457.

FGMRES Solver Time:0.048751
|          34|  6.9168e-01|   -3.963236|   -8.740369|   -0.027181|    0.000150|
preconditon Time:0.070337

# FGMRES residual history
# Residual tolerance target = 0.0001
# Initial residual norm     = 8346.04
     0     1
Smoother Time:0.018663
Smoother Time:0.035067
Smoother Time:0.051649
Smoother Time:0.068015
Smoother Time:0.084793
Smoother Time:0.101876
Smoother Time:0.120764
Smoother Time:0.140135
Smoother Time:0.159354
Smoother Time:0.178645
     10     0.00903732
# FGMRES final (true) residual:
# Iteration = 10: |res|/|res0| = 0.00903732.

FGMRES Solver Time:0.307745
Total Time:0.378144
preconditon Time:0.012642

# FGMRES residual history
# Residual tolerance target = 0.0001
# Initial residual norm     = 4.38243e-07
     0     1
     10     0.189867
# FGMRES final (true) residual:
# Iteration = 10: |res|/|res0| = 0.189867.

FGMRES Solver Time:0.046943
|          35|  6.9438e-01|   -3.965421|   -8.749840|   -0.027514|    0.000149|
preconditon Time:0.064186

# FGMRES residual history
# Residual tolerance target = 0.0001
# Initial residual norm     = 8144.36
     0     1
Smoother Time:0.018381
Smoother Time:0.037461
Smoother Time:0.056263
Smoother Time:0.074899
Smoother Time:0.093725
Smoother Time:0.112668
Smoother Time:0.129931
Smoother Time:0.148318
Smoother Time:0.167538
Smoother Time:0.185012
     10     0.0087268
# FGMRES final (true) residual:
# Iteration = 10: |res|/|res0| = 0.0087268.

FGMRES Solver Time:0.317322
Total Time:0.381559
preconditon Time:0.012714

# FGMRES residual history
# Residual tolerance target = 0.0001
# Initial residual norm     = 4.08845e-07
     0     1
     10     0.185658
# FGMRES final (true) residual:
# Iteration = 10: |res|/|res0| = 0.185658.

FGMRES Solver Time:0.045427
|          36|  6.9619e-01|   -3.955578|   -8.779996|   -0.027246|    0.000149|
preconditon Time:0.079934

# FGMRES residual history
# Residual tolerance target = 0.0001
# Initial residual norm     = 8681.05
     0     1
Smoother Time:0.018567
Smoother Time:0.03608
Smoother Time:0.054025
Smoother Time:0.072838
Smoother Time:0.090079
Smoother Time:0.106618
Smoother Time:0.123291
Smoother Time:0.139884
Smoother Time:0.156694
Smoother Time:0.17534
     10     0.00900509
# FGMRES final (true) residual:
# Iteration = 10: |res|/|res0| = 0.00900509.

FGMRES Solver Time:0.300358
Total Time:0.380356
preconditon Time:0.011213

# FGMRES residual history
# Residual tolerance target = 0.0001
# Initial residual norm     = 3.69873e-07
     0     1
     10     0.212731
# FGMRES final (true) residual:
# Iteration = 10: |res|/|res0| = 0.212731.

FGMRES Solver Time:0.041998
|          37|  6.9728e-01|   -3.947242|   -8.823503|   -0.027330|    0.000149|
preconditon Time:0.075484

# FGMRES residual history
# Residual tolerance target = 0.0001
# Initial residual norm     = 8567.66
     0     1
Smoother Time:0.018115
Smoother Time:0.034473
Smoother Time:0.051113
Smoother Time:0.068068
Smoother Time:0.08536
Smoother Time:0.104111
Smoother Time:0.121069
Smoother Time:0.137988
Smoother Time:0.154819
Smoother Time:0.171442
     10     0.00845621
# FGMRES final (true) residual:
# Iteration = 10: |res|/|res0| = 0.00845621.

FGMRES Solver Time:0.294226
Total Time:0.369764
preconditon Time:0.011086

# FGMRES residual history
# Residual tolerance target = 0.0001
# Initial residual norm     = 3.44055e-07
     0     1
     10     0.212305
# FGMRES final (true) residual:
# Iteration = 10: |res|/|res0| = 0.212305.

FGMRES Solver Time:0.040604
|          38|  6.9791e-01|   -3.931381|   -8.854927|   -0.026942|    0.000148|
preconditon Time:0.063486

# FGMRES residual history
# Residual tolerance target = 0.0001
# Initial residual norm     = 9247.6
     0     1
Smoother Time:0.017382
Smoother Time:0.036354
Smoother Time:0.052736
Smoother Time:0.069291
Smoother Time:0.085848
Smoother Time:0.102502
Smoother Time:0.119533
Smoother Time:0.137245
Smoother Time:0.154044
Smoother Time:0.17081
     10     0.00865959
# FGMRES final (true) residual:
# Iteration = 10: |res|/|res0| = 0.00865959.

FGMRES Solver Time:0.292351
Total Time:0.355889
preconditon Time:0.011678

# FGMRES residual history
# Residual tolerance target = 0.0001
# Initial residual norm     = 3.38589e-07
     0     1
     10     0.214989
# FGMRES final (true) residual:
# Iteration = 10: |res|/|res0| = 0.214989.

FGMRES Solver Time:0.040188
|          39|  6.9818e-01|   -3.918681|   -8.861882|   -0.027170|    0.000148|
preconditon Time:0.062613

# FGMRES residual history
# Residual tolerance target = 0.0001
# Initial residual norm     = 9174.58
     0     1
Smoother Time:0.016267
Smoother Time:0.03283
Smoother Time:0.049325
Smoother Time:0.065711
Smoother Time:0.082911
Smoother Time:0.101647
Smoother Time:0.120694
Smoother Time:0.139744
Smoother Time:0.158694
Smoother Time:0.177944
     10     0.00823409
# FGMRES final (true) residual:
# Iteration = 10: |res|/|res0| = 0.00823409.

FGMRES Solver Time:0.305745
Total Time:0.368428
preconditon Time:0.012534

# FGMRES residual history
# Residual tolerance target = 0.0001
# Initial residual norm     = 3.37278e-07
     0     1
     10     0.199279
# FGMRES final (true) residual:
# Iteration = 10: |res|/|res0| = 0.199279.

FGMRES Solver Time:0.044505
|          40|  6.9917e-01|   -3.899755|   -8.863568|   -0.027033|    0.000148|
preconditon Time:0.070547

# FGMRES residual history
# Residual tolerance target = 0.0001
# Initial residual norm     = 9982.72
     0     1
Smoother Time:0.018769
Smoother Time:0.037547
Smoother Time:0.056387
Smoother Time:0.075807
Smoother Time:0.095265
Smoother Time:0.112605
Smoother Time:0.12942
Smoother Time:0.146326
Smoother Time:0.162939
Smoother Time:0.179821
     10     0.00848721
# FGMRES final (true) residual:
# Iteration = 10: |res|/|res0| = 0.00848721.

FGMRES Solver Time:0.305838
Total Time:0.376442
preconditon Time:0.011118

# FGMRES residual history
# Residual tolerance target = 0.0001
# Initial residual norm     = 3.40429e-07
     0     1
     10     0.204581
# FGMRES final (true) residual:
# Iteration = 10: |res|/|res0| = 0.204581.

FGMRES Solver Time:0.040085
|          41|  6.9993e-01|   -3.884513|   -8.859528|   -0.027441|    0.000148|
preconditon Time:0.063818

# FGMRES residual history
# Residual tolerance target = 0.0001
# Initial residual norm     = 9931.63
     0     1
Smoother Time:0.016714
Smoother Time:0.033216
Smoother Time:0.049673
Smoother Time:0.066083
Smoother Time:0.08255
Smoother Time:0.099317
Smoother Time:0.115987
Smoother Time:0.133065
Smoother Time:0.150764
Smoother Time:0.169746
     10     0.00806209
# FGMRES final (true) residual:
# Iteration = 10: |res|/|res0| = 0.00806209.

FGMRES Solver Time:0.291578
Total Time:0.355446
preconditon Time:0.011303

# FGMRES residual history
# Residual tolerance target = 0.0001
# Initial residual norm     = 3.47225e-07
     0     1
     10     0.200102
# FGMRES final (true) residual:
# Iteration = 10: |res|/|res0| = 0.200102.

FGMRES Solver Time:0.04005
|          42|  7.0021e-01|   -3.863612|   -8.850944|   -0.027259|    0.000147|
preconditon Time:0.066181

# FGMRES residual history
# Residual tolerance target = 0.0001
# Initial residual norm     = 10876.8
     0     1
Smoother Time:0.016558
Smoother Time:0.033012
Smoother Time:0.049776
Smoother Time:0.066586
Smoother Time:0.084804
Smoother Time:0.102454
Smoother Time:0.119282
Smoother Time:0.135923
Smoother Time:0.152575
Smoother Time:0.169339
     10     0.00829912
# FGMRES final (true) residual:
# Iteration = 10: |res|/|res0| = 0.00829912.

FGMRES Solver Time:0.287522
Total Time:0.353755
preconditon Time:0.01263

# FGMRES residual history
# Residual tolerance target = 0.0001
# Initial residual norm     = 3.45779e-07
     0     1
     10     0.204249
# FGMRES final (true) residual:
# Iteration = 10: |res|/|res0| = 0.204249.

FGMRES Solver Time:0.041889
|          43|  7.0051e-01|   -3.846262|   -8.852756|   -0.027518|    0.000147|
preconditon Time:0.0705

# FGMRES residual history
# Residual tolerance target = 0.0001
# Initial residual norm     = 10855.1
     0     1
Smoother Time:0.016218
Smoother Time:0.032774
Smoother Time:0.049367
Smoother Time:0.065982
Smoother Time:0.083016
Smoother Time:0.100026
Smoother Time:0.1168
Smoother Time:0.133409
Smoother Time:0.149927
Smoother Time:0.166743
     10     0.00786044
# FGMRES final (true) residual:
# Iteration = 10: |res|/|res0| = 0.00786044.

FGMRES Solver Time:0.28504
Total Time:0.355595
preconditon Time:0.012072

# FGMRES residual history
# Residual tolerance target = 0.0001
# Initial residual norm     = 3.51938e-07
     0     1
     10     0.196297
# FGMRES final (true) residual:
# Iteration = 10: |res|/|res0| = 0.196297.

FGMRES Solver Time:0.040845
|          44|  7.0105e-01|   -3.823444|   -8.845088|   -0.027155|    0.000147|
preconditon Time:0.063411

# FGMRES residual history
# Residual tolerance target = 0.0001
# Initial residual norm     = 12093.4
     0     1
Smoother Time:0.016548
Smoother Time:0.0333
Smoother Time:0.049871
Smoother Time:0.067032
Smoother Time:0.083714
Smoother Time:0.100544
Smoother Time:0.117223
Smoother Time:0.134198
Smoother Time:0.150971
Smoother Time:0.167712
     10     0.00810944
# FGMRES final (true) residual:
# Iteration = 10: |res|/|res0| = 0.00810944.

FGMRES Solver Time:0.287767
Total Time:0.351233
preconditon Time:0.011283

# FGMRES residual history
# Residual tolerance target = 0.0001
# Initial residual norm     = 3.52578e-07
     0     1
     10     0.188432
# FGMRES final (true) residual:
# Iteration = 10: |res|/|res0| = 0.188432.

FGMRES Solver Time:0.040228
|          45|  7.0121e-01|   -3.799618|   -8.844300|   -0.027389|    0.000147|
preconditon Time:0.063359

# FGMRES residual history
# Residual tolerance target = 0.0001
# Initial residual norm     = 12280.4
     0     1
Smoother Time:0.016137
Smoother Time:0.032671
Smoother Time:0.049323
Smoother Time:0.065782
Smoother Time:0.082228
Smoother Time:0.098731
Smoother Time:0.11552
Smoother Time:0.132335
Smoother Time:0.148898
Smoother Time:0.165559
     10     0.00760336
# FGMRES final (true) residual:
# Iteration = 10: |res|/|res0| = 0.00760336.

FGMRES Solver Time:0.2835
Total Time:0.346912
preconditon Time:0.011933

# FGMRES residual history
# Residual tolerance target = 0.0001
# Initial residual norm     = 3.70968e-07
     0     1
     10     0.177746
# FGMRES final (true) residual:
# Iteration = 10: |res|/|res0| = 0.177746.

FGMRES Solver Time:0.04168
|          46|  7.0103e-01|   -3.767725|   -8.822218|   -0.027065|    0.000146|
preconditon Time:0.062368

# FGMRES residual history
# Residual tolerance target = 0.0001
# Initial residual norm     = 13872.8
     0     1
Smoother Time:0.016557
Smoother Time:0.033075
Smoother Time:0.04961
Smoother Time:0.066168
Smoother Time:0.082848
Smoother Time:0.099332
Smoother Time:0.116092
Smoother Time:0.133103
Smoother Time:0.150058
Smoother Time:0.166896
     10     0.00782103
# FGMRES final (true) residual:
# Iteration = 10: |res|/|res0| = 0.00782103.

FGMRES Solver Time:0.285349
Total Time:0.347772
preconditon Time:0.011498

# FGMRES residual history
# Residual tolerance target = 0.0001
# Initial residual norm     = 3.82697e-07
     0     1
     10     0.167847
# FGMRES final (true) residual:
# Iteration = 10: |res|/|res0| = 0.167847.

FGMRES Solver Time:0.039941
|          47|  7.0084e-01|   -3.738341|   -8.808700|   -0.027423|    0.000146|
preconditon Time:0.063066

# FGMRES residual history
# Residual tolerance target = 0.0001
# Initial residual norm     = 14207.5
     0     1
Smoother Time:0.016341
Smoother Time:0.03273
Smoother Time:0.049404
Smoother Time:0.066148
Smoother Time:0.083064
Smoother Time:0.09984
Smoother Time:0.116622
Smoother Time:0.133421
Smoother Time:0.150039
Smoother Time:0.166853
     10     0.00717261
# FGMRES final (true) residual:
# Iteration = 10: |res|/|res0| = 0.00717261.

FGMRES Solver Time:0.284854
Total Time:0.347971
preconditon Time:0.01113

# FGMRES residual history
# Residual tolerance target = 0.0001
# Initial residual norm     = 3.96742e-07
     0     1
     10     0.167226
# FGMRES final (true) residual:
# Iteration = 10: |res|/|res0| = 0.167226.

FGMRES Solver Time:0.039667
|          48|  7.0053e-01|   -3.703965|   -8.793047|   -0.027119|    0.000146|
preconditon Time:0.063479

# FGMRES residual history
# Residual tolerance target = 0.0001
# Initial residual norm     = 14613.6
     0     1
Smoother Time:0.016378
Smoother Time:0.032983
Smoother Time:0.04944
Smoother Time:0.066235
Smoother Time:0.082961
Smoother Time:0.099709
Smoother Time:0.116738
Smoother Time:0.133476
Smoother Time:0.150194
Smoother Time:0.166877
     10     0.00768399
# FGMRES final (true) residual:
# Iteration = 10: |res|/|res0| = 0.00768399.

FGMRES Solver Time:0.284735
Total Time:0.348265
preconditon Time:0.011337

# FGMRES residual history
# Residual tolerance target = 0.0001
# Initial residual norm     = 3.95782e-07
     0     1
     10     0.16438
# FGMRES final (true) residual:
# Iteration = 10: |res|/|res0| = 0.16438.

FGMRES Solver Time:0.040041
|          49|  7.0028e-01|   -3.714797|   -8.794099|   -0.027490|    0.000146|
preconditon Time:0.06302

# FGMRES residual history
# Residual tolerance target = 0.0001
# Initial residual norm     = 14247.5
     0     1
Smoother Time:0.016353
Smoother Time:0.033
Smoother Time:0.049627
Smoother Time:0.066368
Smoother Time:0.082793
Smoother Time:0.099316
Smoother Time:0.116061
Smoother Time:0.132603
Smoother Time:0.149242
Smoother Time:0.165858
     10     0.00710776
# FGMRES final (true) residual:
# Iteration = 10: |res|/|res0| = 0.00710776.

FGMRES Solver Time:0.284672
Total Time:0.347757
preconditon Time:0.011482

# FGMRES residual history
# Residual tolerance target = 0.0001
# Initial residual norm     = 4.03421e-07
     0     1
     10     0.165021
# FGMRES final (true) residual:
# Iteration = 10: |res|/|res0| = 0.165021.

FGMRES Solver Time:0.040624
|          50|  7.0013e-01|   -3.703918|   -8.785797|   -0.027158|    0.000146|
preconditon Time:0.068072

# FGMRES residual history
# Residual tolerance target = 0.0001
# Initial residual norm     = 15478.2
     0     1
Smoother Time:0.01628
Smoother Time:0.032628
Smoother Time:0.049121
Smoother Time:0.065687
Smoother Time:0.082237
Smoother Time:0.098909
Smoother Time:0.115735
Smoother Time:0.132638
Smoother Time:0.149831
Smoother Time:0.166669
     10     0.00698911
# FGMRES final (true) residual:
# Iteration = 10: |res|/|res0| = 0.00698911.

FGMRES Solver Time:0.285351
Total Time:0.353474
preconditon Time:0.011189

# FGMRES residual history
# Residual tolerance target = 0.0001
# Initial residual norm     = 4.17423e-07
     0     1
     10     0.153209
# FGMRES final (true) residual:
# Iteration = 10: |res|/|res0| = 0.153209.

FGMRES Solver Time:0.039973
|          51|  6.9997e-01|   -3.689977|   -8.770979|   -0.027500|    0.000146|
preconditon Time:0.063256

# FGMRES residual history
# Residual tolerance target = 0.0001
# Initial residual norm     = 15765.9
     0     1
Smoother Time:0.016809
Smoother Time:0.033641
Smoother Time:0.050552
Smoother Time:0.067143
Smoother Time:0.083655
Smoother Time:0.100162
Smoother Time:0.116879
Smoother Time:0.133564
Smoother Time:0.150403
Smoother Time:0.167059
     10     0.00635314
# FGMRES final (true) residual:
# Iteration = 10: |res|/|res0| = 0.00635314.

FGMRES Solver Time:0.285695
Total Time:0.349004
preconditon Time:0.011307

# FGMRES residual history
# Residual tolerance target = 0.0001
# Initial residual norm     = 4.40919e-07
     0     1
     10     0.142324
# FGMRES final (true) residual:
# Iteration = 10: |res|/|res0| = 0.142324.

FGMRES Solver Time:0.040578
|          52|  6.9976e-01|   -3.660231|   -8.747196|   -0.027166|    0.000146|
preconditon Time:0.062842

# FGMRES residual history
# Residual tolerance target = 0.0001
# Initial residual norm     = 17818.8
     0     1
Smoother Time:0.016443
Smoother Time:0.032822
Smoother Time:0.049148
Smoother Time:0.065719
Smoother Time:0.082174
Smoother Time:0.098708
Smoother Time:0.115336
Smoother Time:0.13214
Smoother Time:0.148823
Smoother Time:0.165587
     10     0.00598537
# FGMRES final (true) residual:
# Iteration = 10: |res|/|res0| = 0.00598537.

FGMRES Solver Time:0.283437
Total Time:0.346334
preconditon Time:0.011003

# FGMRES residual history
# Residual tolerance target = 0.0001
# Initial residual norm     = 4.72278e-07
     0     1
     10     0.124513
# FGMRES final (true) residual:
# Iteration = 10: |res|/|res0| = 0.124513.

FGMRES Solver Time:0.041005
|          53|  6.9957e-01|   -3.628385|   -8.717357|   -0.027478|    0.000145|
preconditon Time:0.062471

# FGMRES residual history
# Residual tolerance target = 0.0001
# Initial residual norm     = 18692
     0     1
Smoother Time:0.016446
Smoother Time:0.032938
Smoother Time:0.04964
Smoother Time:0.066153
Smoother Time:0.082716
Smoother Time:0.099413
Smoother Time:0.11626
Smoother Time:0.133193
Smoother Time:0.150026
Smoother Time:0.167263
     10     0.00536269
# FGMRES final (true) residual:
# Iteration = 10: |res|/|res0| = 0.00536269.

FGMRES Solver Time:0.286172
Total Time:0.348694
preconditon Time:0.011164

# FGMRES residual history
# Residual tolerance target = 0.0001
# Initial residual norm     = 5.04349e-07
     0     1
     10     0.109919
# FGMRES final (true) residual:
# Iteration = 10: |res|/|res0| = 0.109919.

FGMRES Solver Time:0.040236
|          54|  6.9937e-01|   -3.582539|   -8.688824|   -0.027130|    0.000145|
preconditon Time:0.06358

# FGMRES residual history
# Residual tolerance target = 0.0001
# Initial residual norm     = 21801.3
     0     1
Smoother Time:0.016295
Smoother Time:0.032612
Smoother Time:0.049078
Smoother Time:0.065703
Smoother Time:0.082448
Smoother Time:0.099353
Smoother Time:0.116269
Smoother Time:0.133065
Smoother Time:0.149997
Smoother Time:0.167018
     10     0.00503021
# FGMRES final (true) residual:
# Iteration = 10: |res|/|res0| = 0.00503021.

FGMRES Solver Time:0.285028
Total Time:0.348664
preconditon Time:0.010949

# FGMRES residual history
# Residual tolerance target = 0.0001
# Initial residual norm     = 5.65031e-07
     0     1
     10     0.0921904
# FGMRES final (true) residual:
# Iteration = 10: |res|/|res0| = 0.0921904.

FGMRES Solver Time:0.039506
|          55|  6.9915e-01|   -3.539048|   -8.639483|   -0.027425|    0.000145|
preconditon Time:0.063066

# FGMRES residual history
# Residual tolerance target = 0.0001
# Initial residual norm     = 23105.3
     0     1
Smoother Time:0.016723
Smoother Time:0.033203
Smoother Time:0.050165
Smoother Time:0.066915
Smoother Time:0.083502
Smoother Time:0.100315
Smoother Time:0.116968
Smoother Time:0.133727
Smoother Time:0.150472
Smoother Time:0.167484
     10     0.00454737
# FGMRES final (true) residual:
# Iteration = 10: |res|/|res0| = 0.00454737.

FGMRES Solver Time:0.286506
Total Time:0.349624
preconditon Time:0.011438

# FGMRES residual history
# Residual tolerance target = 0.0001
# Initial residual norm     = 5.53479e-07
     0     1
     10     0.0884382
# FGMRES final (true) residual:
# Iteration = 10: |res|/|res0| = 0.0884382.

FGMRES Solver Time:0.041672
|          56|  6.9902e-01|   -3.483065|   -8.648454|   -0.027130|    0.000145|
preconditon Time:0.063539

# FGMRES residual history
# Residual tolerance target = 0.0001
# Initial residual norm     = 20412.9
     0     1
Smoother Time:0.016216
Smoother Time:0.032673
Smoother Time:0.049278
Smoother Time:0.065882
Smoother Time:0.082726
Smoother Time:0.099471
Smoother Time:0.115955
Smoother Time:0.132506
Smoother Time:0.149221
Smoother Time:0.165811
     10     0.00514748
# FGMRES final (true) residual:
# Iteration = 10: |res|/|res0| = 0.00514748.

FGMRES Solver Time:0.283304
Total Time:0.346909
preconditon Time:0.011416

# FGMRES residual history
# Residual tolerance target = 0.0001
# Initial residual norm     = 5.34213e-07
     0     1
     10     0.0838237
# FGMRES final (true) residual:
# Iteration = 10: |res|/|res0| = 0.0838237.

FGMRES Solver Time:0.04088
|          57|  6.9885e-01|   -3.561232|   -8.663841|   -0.027438|    0.000145|
preconditon Time:0.063403

# FGMRES residual history
# Residual tolerance target = 0.0001
# Initial residual norm     = 16619.3
     0     1
Smoother Time:0.016452
Smoother Time:0.032812
Smoother Time:0.049211
Smoother Time:0.065699
Smoother Time:0.082187
Smoother Time:0.098551
Smoother Time:0.115165
Smoother Time:0.131914
Smoother Time:0.148792
Smoother Time:0.165728
     10     0.00516818
# FGMRES final (true) residual:
# Iteration = 10: |res|/|res0| = 0.00516818.

FGMRES Solver Time:0.283579
Total Time:0.347037
preconditon Time:0.01139

# FGMRES residual history
# Residual tolerance target = 0.0001
# Initial residual norm     = 4.41597e-07
     0     1
     10     0.0911539
# FGMRES final (true) residual:
# Iteration = 10: |res|/|res0| = 0.0911539.

FGMRES Solver Time:0.040106
|          58|  6.9866e-01|   -3.632864|   -8.746529|   -0.027206|    0.000145|
preconditon Time:0.063178

# FGMRES residual history
# Residual tolerance target = 0.0001
# Initial residual norm     = 14878.2
     0     1
Smoother Time:0.01625
Smoother Time:0.032462
Smoother Time:0.049069
Smoother Time:0.065834
Smoother Time:0.082582
Smoother Time:0.099403
Smoother Time:0.116005
Smoother Time:0.132963
Smoother Time:0.149659
Smoother Time:0.166237
     10     0.00567716
# FGMRES final (true) residual:
# Iteration = 10: |res|/|res0| = 0.00567716.

FGMRES Solver Time:0.284503
Total Time:0.347731
preconditon Time:0.011396

# FGMRES residual history
# Residual tolerance target = 0.0001
# Initial residual norm     = 3.88221e-07
     0     1
     10     0.102465
# FGMRES final (true) residual:
# Iteration = 10: |res|/|res0| = 0.102465.

FGMRES Solver Time:0.04006
|          59|  6.9850e-01|   -3.714517|   -8.802476|   -0.027444|    0.000145|
preconditon Time:0.063984

# FGMRES residual history
# Residual tolerance target = 0.0001
# Initial residual norm     = 13254.3
     0     1
Smoother Time:0.016635
Smoother Time:0.033309
Smoother Time:0.049685
Smoother Time:0.066152
Smoother Time:0.082714
Smoother Time:0.099343
Smoother Time:0.115792
Smoother Time:0.132433
Smoother Time:0.149062
Smoother Time:0.165751
     10     0.00560865
# FGMRES final (true) residual:
# Iteration = 10: |res|/|res0| = 0.00560865.

FGMRES Solver Time:0.283398
Total Time:0.34743
preconditon Time:0.010971

# FGMRES residual history
# Residual tolerance target = 0.0001
# Initial residual norm     = 3.53012e-07
     0     1
     10     0.0982066
# FGMRES final (true) residual:
# Iteration = 10: |res|/|res0| = 0.0982066.

FGMRES Solver Time:0.040099
|          60|  6.9831e-01|   -3.739895|   -8.843766|   -0.027180|    0.000145|
preconditon Time:0.062497

# FGMRES residual history
# Residual tolerance target = 0.0001
# Initial residual norm     = 12449.9
     0     1
Smoother Time:0.016337
Smoother Time:0.032999
Smoother Time:0.049691
Smoother Time:0.066476
Smoother Time:0.083173
Smoother Time:0.100001
Smoother Time:0.116492
Smoother Time:0.133228
Smoother Time:0.149917
Smoother Time:0.166492
     10     0.0059019
# FGMRES final (true) residual:
# Iteration = 10: |res|/|res0| = 0.0059019.

FGMRES Solver Time:0.285522
Total Time:0.348071
preconditon Time:0.011351

# FGMRES residual history
# Residual tolerance target = 0.0001
# Initial residual norm     = 3.25569e-07
     0     1
     10     0.109053
# FGMRES final (true) residual:
# Iteration = 10: |res|/|res0| = 0.109053.

FGMRES Solver Time:0.040803
|          61|  6.9820e-01|   -3.790181|   -8.878912|   -0.027355|    0.000144|
preconditon Time:0.062807

# FGMRES residual history
# Residual tolerance target = 0.0001
# Initial residual norm     = 11535.9
     0     1
Smoother Time:0.016266
Smoother Time:0.032588
Smoother Time:0.049275
Smoother Time:0.065788
Smoother Time:0.082428
Smoother Time:0.099083
Smoother Time:0.115698
Smoother Time:0.132707
Smoother Time:0.149823
Smoother Time:0.166756
     10     0.00575759
# FGMRES final (true) residual:
# Iteration = 10: |res|/|res0| = 0.00575759.

FGMRES Solver Time:0.285811
Total Time:0.348675
preconditon Time:0.011108

# FGMRES residual history
# Residual tolerance target = 0.0001
# Initial residual norm     = 3.07475e-07
     0     1
     10     0.101006
# FGMRES final (true) residual:
# Iteration = 10: |res|/|res0| = 0.101006.

FGMRES Solver Time:0.039905
|          62|  6.9801e-01|   -3.798572|   -8.903745|   -0.027129|    0.000144|
preconditon Time:0.062522

# FGMRES residual history
# Residual tolerance target = 0.0001
# Initial residual norm     = 11247.4
     0     1
Smoother Time:0.016391
Smoother Time:0.033223
Smoother Time:0.049962
Smoother Time:0.066562
Smoother Time:0.08347
Smoother Time:0.100327
Smoother Time:0.116877
Smoother Time:0.133477
Smoother Time:0.150317
Smoother Time:0.16727
     10     0.00598275
# FGMRES final (true) residual:
# Iteration = 10: |res|/|res0| = 0.00598275.

FGMRES Solver Time:0.286145
Total Time:0.34872
preconditon Time:0.011056

# FGMRES residual history
# Residual tolerance target = 0.0001
# Initial residual norm     = 2.95367e-07
     0     1
     10     0.097129
# FGMRES final (true) residual:
# Iteration = 10: |res|/|res0| = 0.097129.

FGMRES Solver Time:0.040298
|          63|  6.9786e-01|   -3.834627|   -8.921193|   -0.027357|    0.000144|
preconditon Time:0.063799

# FGMRES residual history
# Residual tolerance target = 0.0001
# Initial residual norm     = 10522.3
     0     1
Smoother Time:0.016376
Smoother Time:0.03271
Smoother Time:0.049144
Smoother Time:0.065866
Smoother Time:0.082373
Smoother Time:0.099069
Smoother Time:0.115722
Smoother Time:0.132441
Smoother Time:0.148974
Smoother Time:0.165758
     10     0.00568306
# FGMRES final (true) residual:
# Iteration = 10: |res|/|res0| = 0.00568306.

FGMRES Solver Time:0.284392
Total Time:0.348244
preconditon Time:0.011163

# FGMRES residual history
# Residual tolerance target = 0.0001
# Initial residual norm     = 2.80143e-07
     0     1
     10     0.0833704
# FGMRES final (true) residual:
# Iteration = 10: |res|/|res0| = 0.0833704.

FGMRES Solver Time:0.039856
|          64|  6.9770e-01|   -3.839436|   -8.944175|   -0.027219|    0.000144|
preconditon Time:0.062524

# FGMRES residual history
# Residual tolerance target = 0.0001
# Initial residual norm     = 10331.1
     0     1
Smoother Time:0.016295
Smoother Time:0.032555
Smoother Time:0.049049
Smoother Time:0.065785
Smoother Time:0.082458
Smoother Time:0.099046
Smoother Time:0.115917
Smoother Time:0.132562
Smoother Time:0.149216
Smoother Time:0.165851
     10     0.00589653
# FGMRES final (true) residual:
# Iteration = 10: |res|/|res0| = 0.00589653.

FGMRES Solver Time:0.283633
Total Time:0.346211
preconditon Time:0.011474

# FGMRES residual history
# Residual tolerance target = 0.0001
# Initial residual norm     = 2.72473e-07
     0     1
     10     0.0804466
# FGMRES final (true) residual:
# Iteration = 10: |res|/|res0| = 0.0804466.

FGMRES Solver Time:0.04081
|          65|  6.9758e-01|   -3.869948|   -8.956231|   -0.027432|    0.000144|
preconditon Time:0.062894

# FGMRES residual history
# Residual tolerance target = 0.0001
# Initial residual norm     = 9727.14
     0     1
Smoother Time:0.016308
Smoother Time:0.03294
Smoother Time:0.049354
Smoother Time:0.065707
Smoother Time:0.082322
Smoother Time:0.098833
Smoother Time:0.115779
Smoother Time:0.132588
Smoother Time:0.149793
Smoother Time:0.166881
     10     0.00573332
# FGMRES final (true) residual:
# Iteration = 10: |res|/|res0| = 0.00573332.

FGMRES Solver Time:0.285561
Total Time:0.348507
preconditon Time:0.011118

# FGMRES residual history
# Residual tolerance target = 0.0001
# Initial residual norm     = 2.58416e-07
     0     1
     10     0.078242
# FGMRES final (true) residual:
# Iteration = 10: |res|/|res0| = 0.078242.

FGMRES Solver Time:0.040023
|          66|  6.9747e-01|   -3.874086|   -8.979235|   -0.027248|    0.000144|
preconditon Time:0.062322

# FGMRES residual history
# Residual tolerance target = 0.0001
# Initial residual norm     = 9562.72
     0     1
Smoother Time:0.016364
Smoother Time:0.033169
Smoother Time:0.049978
Smoother Time:0.066785
Smoother Time:0.083496
Smoother Time:0.100033
Smoother Time:0.116566
Smoother Time:0.1334
Smoother Time:0.149987
Smoother Time:0.166692
     10     0.00572772
# FGMRES final (true) residual:
# Iteration = 10: |res|/|res0| = 0.00572772.

FGMRES Solver Time:0.285644
Total Time:0.348022
preconditon Time:0.011011

# FGMRES residual history
# Residual tolerance target = 0.0001
# Initial residual norm     = 2.5082e-07
     0     1
     10     0.0901053
# FGMRES final (true) residual:
# Iteration = 10: |res|/|res0| = 0.0901053.

FGMRES Solver Time:0.040106
|          67|  6.9734e-01|   -3.902504|   -8.992193|   -0.027378|    0.000144|
preconditon Time:0.064013

# FGMRES residual history
# Residual tolerance target = 0.0001
# Initial residual norm     = 9031.6
     0     1
Smoother Time:0.016755
Smoother Time:0.033417
Smoother Time:0.050166
Smoother Time:0.066695
Smoother Time:0.083363
Smoother Time:0.100127
Smoother Time:0.11681
Smoother Time:0.133822
Smoother Time:0.150606
Smoother Time:0.167348
     10     0.00575949
# FGMRES final (true) residual:
# Iteration = 10: |res|/|res0| = 0.00575949.

FGMRES Solver Time:0.286303
Total Time:0.350385
preconditon Time:0.011138

# FGMRES residual history
# Residual tolerance target = 0.0001
# Initial residual norm     = 2.38042e-07
     0     1
     10     0.0950526
# FGMRES final (true) residual:
# Iteration = 10: |res|/|res0| = 0.0950526.

FGMRES Solver Time:0.040205
|          68|  6.9725e-01|   -3.907105|   -9.014901|   -0.027189|    0.000144|
preconditon Time:0.062418

# FGMRES residual history
# Residual tolerance target = 0.0001
# Initial residual norm     = 8875.86
     0     1
Smoother Time:0.016484
Smoother Time:0.032847
Smoother Time:0.049266
Smoother Time:0.065838
Smoother Time:0.082495
Smoother Time:0.0991
Smoother Time:0.115863
Smoother Time:0.13248
Smoother Time:0.149237
Smoother Time:0.165821
     10     0.00562342
# FGMRES final (true) residual:
# Iteration = 10: |res|/|res0| = 0.00562342.

FGMRES Solver Time:0.283947
Total Time:0.346416
preconditon Time:0.011106

# FGMRES residual history
# Residual tolerance target = 0.0001
# Initial residual norm     = 2.31781e-07
     0     1
     10     0.100881
# FGMRES final (true) residual:
# Iteration = 10: |res|/|res0| = 0.100881.

FGMRES Solver Time:0.039855
|          69|  6.9713e-01|   -3.934294|   -9.026477|   -0.027334|    0.000143|
preconditon Time:0.062686

# FGMRES residual history
# Residual tolerance target = 0.0001
# Initial residual norm     = 8405.77
     0     1
Smoother Time:0.016754
Smoother Time:0.033414
Smoother Time:0.049973
Smoother Time:0.066831
Smoother Time:0.083567
Smoother Time:0.100434
Smoother Time:0.117399
Smoother Time:0.134322
Smoother Time:0.151318
Smoother Time:0.168067
     10     0.00566361
# FGMRES final (true) residual:
# Iteration = 10: |res|/|res0| = 0.00566361.

FGMRES Solver Time:0.287803
Total Time:0.350557
preconditon Time:0.011134

# FGMRES residual history
# Residual tolerance target = 0.0001
# Initial residual norm     = 2.20742e-07
     0     1
     10     0.104871
# FGMRES final (true) residual:
# Iteration = 10: |res|/|res0| = 0.104871.

FGMRES Solver Time:0.039598
|          70|  6.9701e-01|   -3.939145|   -9.047670|   -0.027196|    0.000143|
preconditon Time:0.062621

# FGMRES residual history
# Residual tolerance target = 0.0001
# Initial residual norm     = 8255.23
     0     1
Smoother Time:0.016672
Smoother Time:0.033253
Smoother Time:0.049812
Smoother Time:0.066654
Smoother Time:0.08329
Smoother Time:0.099846
Smoother Time:0.116583
Smoother Time:0.133129
Smoother Time:0.14997
Smoother Time:0.166736
     10     0.00559545
# FGMRES final (true) residual:
# Iteration = 10: |res|/|res0| = 0.00559545.

FGMRES Solver Time:0.285295
Total Time:0.347969
preconditon Time:0.011014

# FGMRES residual history
# Residual tolerance target = 0.0001
# Initial residual norm     = 2.15946e-07
     0     1
     10     0.106233
# FGMRES final (true) residual:
# Iteration = 10: |res|/|res0| = 0.106233.

FGMRES Solver Time:0.040304
|          71|  6.9689e-01|   -3.965414|   -9.057210|   -0.027344|    0.000143|
preconditon Time:0.062595

# FGMRES residual history
# Residual tolerance target = 0.0001
# Initial residual norm     = 7836.4
     0     1
Smoother Time:0.016338
Smoother Time:0.033038
Smoother Time:0.049755
Smoother Time:0.066128
Smoother Time:0.082735
Smoother Time:0.099224
Smoother Time:0.115941
Smoother Time:0.132715
Smoother Time:0.149475
Smoother Time:0.166575
     10     0.00550743
# FGMRES final (true) residual:
# Iteration = 10: |res|/|res0| = 0.00550743.

FGMRES Solver Time:0.285185
Total Time:0.347845
preconditon Time:0.011702

# FGMRES residual history
# Residual tolerance target = 0.0001
# Initial residual norm     = 2.06328e-07
     0     1
     10     0.112488
# FGMRES final (true) residual:
# Iteration = 10: |res|/|res0| = 0.112488.

FGMRES Solver Time:0.041851
|          72|  6.9686e-01|   -3.970432|   -9.076997|   -0.027216|    0.000143|
preconditon Time:0.064651

# FGMRES residual history
# Residual tolerance target = 0.0001
# Initial residual norm     = 7692.55
     0     1
Smoother Time:0.016309
Smoother Time:0.032893
Smoother Time:0.049497
Smoother Time:0.066156
Smoother Time:0.082693
Smoother Time:0.099328
Smoother Time:0.116066
Smoother Time:0.132808
Smoother Time:0.149494
Smoother Time:0.166576
     10     0.00558911
# FGMRES final (true) residual:
# Iteration = 10: |res|/|res0| = 0.00558911.

FGMRES Solver Time:0.284956
Total Time:0.349661
preconditon Time:0.010935

# FGMRES residual history
# Residual tolerance target = 0.0001
# Initial residual norm     = 2.02821e-07
     0     1
     10     0.117977
# FGMRES final (true) residual:
# Iteration = 10: |res|/|res0| = 0.117977.

FGMRES Solver Time:0.040747
|          73|  6.9686e-01|   -3.995822|   -9.084443|   -0.027350|    0.000143|
preconditon Time:0.062392

# FGMRES residual history
# Residual tolerance target = 0.0001
# Initial residual norm     = 7318.29
     0     1
Smoother Time:0.016279
Smoother Time:0.032675
Smoother Time:0.04912
Smoother Time:0.065535
Smoother Time:0.082221
Smoother Time:0.099017
Smoother Time:0.115918
Smoother Time:0.132886
Smoother Time:0.149706
Smoother Time:0.166501
     10     0.00535432
# FGMRES final (true) residual:
# Iteration = 10: |res|/|res0| = 0.00535432.

FGMRES Solver Time:0.285482
Total Time:0.347929
preconditon Time:0.011276

# FGMRES residual history
# Residual tolerance target = 0.0001
# Initial residual norm     = 1.94274e-07
     0     1
     10     0.126697
# FGMRES final (true) residual:
# Iteration = 10: |res|/|res0| = 0.126697.

FGMRES Solver Time:0.040058
|          74|  6.9673e-01|   -4.000928|   -9.103141|   -0.027235|    0.000143|
preconditon Time:0.063399

# FGMRES residual history
# Residual tolerance target = 0.0001
# Initial residual norm     = 7180.64
     0     1
Smoother Time:0.016524
Smoother Time:0.033107
Smoother Time:0.049626
Smoother Time:0.065948
Smoother Time:0.082496
Smoother Time:0.098975
Smoother Time:0.115907
Smoother Time:0.132547
Smoother Time:0.149359
Smoother Time:0.165919
     10     0.00555003
# FGMRES final (true) residual:
# Iteration = 10: |res|/|res0| = 0.00555003.

FGMRES Solver Time:0.284416
Total Time:0.347866
preconditon Time:0.01121

# FGMRES residual history
# Residual tolerance target = 0.0001
# Initial residual norm     = 1.91005e-07
     0     1
     10     0.137365
# FGMRES final (true) residual:
# Iteration = 10: |res|/|res0| = 0.137365.

FGMRES Solver Time:0.039809
|          75|  6.9660e-01|   -4.025536|   -9.110511|   -0.027353|    0.000143|
preconditon Time:0.062533

# FGMRES residual history
# Residual tolerance target = 0.0001
# Initial residual norm     = 6845.55
     0     1
Smoother Time:0.016165
Smoother Time:0.032848
Smoother Time:0.049637
Smoother Time:0.066149
Smoother Time:0.082613
Smoother Time:0.099604
Smoother Time:0.116435
Smoother Time:0.133023
Smoother Time:0.149753
Smoother Time:0.166446
     10     0.00525523
# FGMRES final (true) residual:
# Iteration = 10: |res|/|res0| = 0.00525523.

FGMRES Solver Time:0.28525
Total Time:0.34784
preconditon Time:0.011485

# FGMRES residual history
# Residual tolerance target = 0.0001
# Initial residual norm     = 1.83736e-07
     0     1
     10     0.151538
# FGMRES final (true) residual:
# Iteration = 10: |res|/|res0| = 0.151538.

FGMRES Solver Time:0.04156
|          76|  6.9653e-01|   -4.030647|   -9.127361|   -0.027234|    0.000143|
preconditon Time:0.06327

# FGMRES residual history
# Residual tolerance target = 0.0001
# Initial residual norm     = 6714.01
     0     1
Smoother Time:0.016583
Smoother Time:0.032923
Smoother Time:0.049515
Smoother Time:0.066196
Smoother Time:0.082824
Smoother Time:0.099434
Smoother Time:0.116143
Smoother Time:0.13268
Smoother Time:0.149345
Smoother Time:0.166063
     10     0.00543249
# FGMRES final (true) residual:
# Iteration = 10: |res|/|res0| = 0.00543249.

FGMRES Solver Time:0.28514
Total Time:0.348463
preconditon Time:0.010983

# FGMRES residual history
# Residual tolerance target = 0.0001
# Initial residual norm     = 1.81189e-07
     0     1
     10     0.161413
# FGMRES final (true) residual:
# Iteration = 10: |res|/|res0| = 0.161413.

FGMRES Solver Time:0.040085
|          77|  6.9647e-01|   -4.054552|   -9.133423|   -0.027327|    0.000143|
preconditon Time:0.063213

# FGMRES residual history
# Residual tolerance target = 0.0001
# Initial residual norm     = 6412.03
     0     1
Smoother Time:0.016262
Smoother Time:0.032685
Smoother Time:0.049162
Smoother Time:0.066137
Smoother Time:0.083045
Smoother Time:0.099855
Smoother Time:0.116724
Smoother Time:0.13358
Smoother Time:0.150284
Smoother Time:0.167124
     10     0.00520642
# FGMRES final (true) residual:
# Iteration = 10: |res|/|res0| = 0.00520642.

FGMRES Solver Time:0.285367
Total Time:0.348633
preconditon Time:0.011116

# FGMRES residual history
# Residual tolerance target = 0.0001
# Initial residual norm     = 1.75678e-07
     0     1
     10     0.164533
# FGMRES final (true) residual:
# Iteration = 10: |res|/|res0| = 0.164533.

FGMRES Solver Time:0.039707
|          78|  6.9635e-01|   -4.059697|   -9.146837|   -0.027215|    0.000142|
preconditon Time:0.063867

# FGMRES residual history
# Residual tolerance target = 0.0001
# Initial residual norm     = 6287.77
     0     1
Smoother Time:0.016706
Smoother Time:0.033303
Smoother Time:0.049853
Smoother Time:0.066216
Smoother Time:0.082653
Smoother Time:0.099279
Smoother Time:0.115821
Smoother Time:0.132468
Smoother Time:0.149104
Smoother Time:0.16575
     10     0.00525913
# FGMRES final (true) residual:
# Iteration = 10: |res|/|res0| = 0.00525913.

FGMRES Solver Time:0.283574
Total Time:0.347493
preconditon Time:0.01137

# FGMRES residual history
# Residual tolerance target = 0.0001
# Initial residual norm     = 1.74117e-07
     0     1
     10     0.168771
# FGMRES final (true) residual:
# Iteration = 10: |res|/|res0| = 0.168771.

FGMRES Solver Time:0.040454
|          79|  6.9625e-01|   -4.082889|   -9.150714|   -0.027312|    0.000142|
preconditon Time:0.062124

# FGMRES residual history
# Residual tolerance target = 0.0001
# Initial residual norm     = 6013.72
     0     1
Smoother Time:0.016357
Smoother Time:0.032617
Smoother Time:0.048984
Smoother Time:0.065461
Smoother Time:0.082152
Smoother Time:0.098693
Smoother Time:0.115347
Smoother Time:0.131832
Smoother Time:0.148554
Smoother Time:0.165159
     10     0.00516936
# FGMRES final (true) residual:
# Iteration = 10: |res|/|res0| = 0.00516936.

FGMRES Solver Time:0.283039
Total Time:0.345215
preconditon Time:0.01164

# FGMRES residual history
# Residual tolerance target = 0.0001
# Initial residual norm     = 1.6979e-07
     0     1
     10     0.163297
# FGMRES final (true) residual:
# Iteration = 10: |res|/|res0| = 0.163297.

FGMRES Solver Time:0.041058
|          80|  6.9618e-01|   -4.088125|   -9.161643|   -0.027227|    0.000142|
preconditon Time:0.062131

# FGMRES residual history
# Residual tolerance target = 0.0001
# Initial residual norm     = 5896.61
     0     1
Smoother Time:0.016334
Smoother Time:0.033053
Smoother Time:0.049507
Smoother Time:0.065923
Smoother Time:0.082445
Smoother Time:0.099026
Smoother Time:0.115546
Smoother Time:0.132293
Smoother Time:0.149328
Smoother Time:0.166408
     10     0.00511531
# FGMRES final (true) residual:
# Iteration = 10: |res|/|res0| = 0.00511531.

FGMRES Solver Time:0.284541
Total Time:0.346724
preconditon Time:0.011265

# FGMRES residual history
# Residual tolerance target = 0.0001
# Initial residual norm     = 1.6857e-07
     0     1
     10     0.162311
# FGMRES final (true) residual:
# Iteration = 10: |res|/|res0| = 0.162311.

FGMRES Solver Time:0.040017
|          81|  6.9608e-01|   -4.110643|   -9.164775|   -0.027325|    0.000142|
preconditon Time:0.06238

# FGMRES residual history
# Residual tolerance target = 0.0001
# Initial residual norm     = 5647.35
     0     1
Smoother Time:0.016228
Smoother Time:0.032533
Smoother Time:0.04937
Smoother Time:0.066072
Smoother Time:0.082899
Smoother Time:0.099609
Smoother Time:0.116283
Smoother Time:0.132821
Smoother Time:0.149523
Smoother Time:0.166173
     10     0.00509399
# FGMRES final (true) residual:
# Iteration = 10: |res|/|res0| = 0.00509399.

FGMRES Solver Time:0.284947
Total Time:0.347381
preconditon Time:0.011202

# FGMRES residual history
# Residual tolerance target = 0.0001
# Initial residual norm     = 1.64139e-07
     0     1
